
emcorina  05091710353D 1   1.00000     0.00000 
CORINA evaluation license 3.49 0066  11.04.2013
 19 19  0  0  0  0  0  0  0  0999 V2000
    3.0692    0.4026   -0.0142 C   0  0  0  0  0  0  0  0  0  0  0  0
    1.6009    0.0634   -0.0029 C   0  0  0  0  0  0  0  0  0  0  0  0
    0.6590    1.0753   -0.0030 C   0  0  0  0  0  0  0  0  0  0  0  0
   -0.6878    0.7669    0.0079 C   0  0  0  0  0  0  0  0  0  0  0  0
   -1.7141    1.8704    0.0077 C   0  0  0  0  0  0  0  0  0  0  0  0
   -1.0944   -0.5592    0.0185 C   0  0  0  0  0  0  0  0  0  0  0  0
   -2.4185   -0.8651    0.0287 O   0  0  0  0  0  0  0  0  0  0  0  0
   -0.1470   -1.5730    0.0181 C   0  0  0  0  0  0  0  0  0  0  0  0
    1.1981   -1.2595    0.0020 C   0  0  0  0  0  0  0  0  0  0  0  0
    3.4298    0.4906    1.0106 H   0  0  0  0  0  0  0  0  0  0  0  0
    3.6203   -0.3858   -0.5268 H   0  0  0  0  0  0  0  0  0  0  0  0
    3.2196    1.3484   -0.5347 H   0  0  0  0  0  0  0  0  0  0  0  0
    0.9760    2.1076   -0.0112 H   0  0  0  0  0  0  0  0  0  0  0  0
   -1.9684    2.1300   -1.0199 H   0  0  0  0  0  0  0  0  0  0  0  0
   -2.6098    1.5336    0.5297 H   0  0  0  0  0  0  0  0  0  0  0  0
   -1.3065    2.7458    0.5134 H   0  0  0  0  0  0  0  0  0  0  0  0
   -2.8073   -0.9590   -0.8517 H   0  0  0  0  0  0  0  0  0  0  0  0
   -0.4611   -2.6063    0.0267 H   0  0  0  0  0  0  0  0  0  0  0  0
    1.9360   -2.0481    0.0013 H   0  0  0  0  0  0  0  0  0  0  0  0
  1  2  1  0  0  0  0
  1 10  1  0  0  0  0
  1 11  1  0  0  0  0
  1 12  1  0  0  0  0
  2  3  2  0  0  0  0
  2  9  1  0  0  0  0
  3  4  1  0  0  0  0
  3 13  1  0  0  0  0
  4  5  1  0  0  0  0
  4  6  2  0  0  0  0
  5 14  1  0  0  0  0
  5 15  1  0  0  0  0
  5 16  1  0  0  0  0
  6  7  1  0  0  0  0
  6  8  1  0  0  0  0
  7 17  1  0  0  0  0
  8  9  2  0  0  0  0
  8 18  1  0  0  0  0
  9 19  1  0  0  0  0
M  END
>  <likely_enzyme_classes>
monooxygenase; methyl hydroxylase

>  <activity>
-9.8

>  <molID>
mol000001

>  <name>
2,4-dimethylphenol

>  <reference>
Mackay handbook of physical-chemical properties

>  <speciation_state_pH7.4>
neutral

>  <substance_type>
chemical substance

>  <smiles>
Cc1ccc(O)c(C)c1

>  <inchi>
InChI=1S/C8H10O/c1-6-3-4-8(9)7(2)5-6/h3-5,9H,1-2H3

>  <inchikey>
KUFFULVDNCHOFZ-UHFFFAOYSA-N

$$$$

emcorina  05091710353D 1   1.00000     0.00000 
CORINA evaluation license 3.49 0066  11.04.2013
 10  9  0  0  0  0  0  0  0  0999 V2000
    1.8074   -0.1309   -0.0003 C   0  0  0  0  0  0  0  0  0  0  0  0
    0.6005    0.4248    0.0000 C   0  0  0  0  0  0  0  0  0  0  0  0
   -0.6005   -0.4248   -0.0002 C   0  0  0  0  0  0  0  0  0  0  0  0
   -1.8074    0.1309    0.0001 C   0  0  0  0  0  0  0  0  0  0  0  0
    2.6891    0.4928   -0.0001 H   0  0  0  0  0  0  0  0  0  0  0  0
    1.9067   -1.2063    0.0038 H   0  0  0  0  0  0  0  0  0  0  0  0
    0.5012    1.5002    0.0005 H   0  0  0  0  0  0  0  0  0  0  0  0
   -0.5012   -1.5002   -0.0007 H   0  0  0  0  0  0  0  0  0  0  0  0
   -1.9067    1.2063    0.0006 H   0  0  0  0  0  0  0  0  0  0  0  0
   -2.6891   -0.4928   -0.0001 H   0  0  0  0  0  0  0  0  0  0  0  0
  1  2  2  0  0  0  0
  1  5  1  0  0  0  0
  1  6  1  0  0  0  0
  2  3  1  0  0  0  0
  2  7  1  0  0  0  0
  3  4  2  0  0  0  0
  3  8  1  0  0  0  0
  4  9  1  0  0  0  0
  4 10  1  0  0  0  0
M  END
>  <likely_enzyme_classes>
alkene monooxygenase

>  <activity>
-10.2

>  <molID>
mol000002

>  <name>
1,3-butadiene

>  <reference>
Capel and Larson (1995)

>  <speciation_state_pH7.4>
neutral

>  <substance_type>
chemical substance

>  <smiles>
C=CC=C

>  <inchi>
InChI=1S/C4H6/c1-3-4-2/h3-4H,1-2H2

>  <inchikey>
KAKZBPTYRLMSJV-UHFFFAOYSA-N

$$$$

emcorina  05091710353D 1   1.00000     0.00000 
CORINA evaluation license 3.49 0066  11.04.2013
 14 14  0  0  0  0  0  0  0  0999 V2000
    0.7338   -1.1972    0.2186 C   0  0  0  0  0  0  0  0  0  0  0  0
   -0.7339   -1.1971   -0.2186 C   0  0  0  0  0  0  0  0  0  0  0  0
   -1.3628    0.0000    0.2487 O   0  0  0  0  0  0  0  0  0  0  0  0
   -0.7338    1.1972   -0.2186 C   0  0  0  0  0  0  0  0  0  0  0  0
    0.7339    1.1971    0.2186 C   0  0  0  0  0  0  0  0  0  0  0  0
    1.3628   -0.0000   -0.2487 O   0  0  0  0  0  0  0  0  0  0  0  0
    0.7899   -1.2374    1.3064 H   0  0  0  0  0  0  0  0  0  0  0  0
    1.2403   -2.0642   -0.2056 H   0  0  0  0  0  0  0  0  0  0  0  0
   -0.7899   -1.2374   -1.3064 H   0  0  0  0  0  0  0  0  0  0  0  0
   -1.2403   -2.0641    0.2056 H   0  0  0  0  0  0  0  0  0  0  0  0
   -0.7899    1.2374   -1.3064 H   0  0  0  0  0  0  0  0  0  0  0  0
   -1.2403    2.0642    0.2056 H   0  0  0  0  0  0  0  0  0  0  0  0
    1.2403    2.0641   -0.2056 H   0  0  0  0  0  0  0  0  0  0  0  0
    0.7899    1.2374    1.3064 H   0  0  0  0  0  0  0  0  0  0  0  0
  1  2  1  0  0  0  0
  1  6  1  0  0  0  0
  1  7  1  0  0  0  0
  1  8  1  0  0  0  0
  2  3  1  0  0  0  0
  2  9  1  0  0  0  0
  2 10  1  0  0  0  0
  3  4  1  0  0  0  0
  4  5  1  0  0  0  0
  4 11  1  0  0  0  0
  4 12  1  0  0  0  0
  5  6  1  0  0  0  0
  5 13  1  0  0  0  0
  5 14  1  0  0  0  0
M  END
>  <likely_enzyme_classes>
monooxygenase

>  <activity>
-11

>  <molID>
mol000003

>  <name>
1,4-dioxane

>  <reference>
Howard: Handbook of Environmental Degradation Rates; Capel and Larson (1995); Mackay handbook

>  <speciation_state_pH7.4>
neutral

>  <substance_type>
chemical substance

>  <smiles>
C1COCCO1

>  <inchi>
InChI=1S/C4H8O2/c1-2-6-4-3-5-1/h1-4H2

>  <inchikey>
RYHBNJHYFVUHQT-UHFFFAOYSA-N

$$$$

emcorina  05091710353D 1   1.00000     0.00000 
CORINA evaluation license 3.49 0066  11.04.2013
 44 47  0  0  0  0  0  0  0  0999 V2000
   -2.2690    0.6216   -1.5412 C   0  0  0  0  0  0  0  0  0  0  0  0
   -2.5118    0.5653   -0.0316 C   0  0  0  0  0  0  0  0  0  0  0  0
   -1.8380    1.7420    0.6467 C   0  0  0  0  0  0  0  0  0  0  0  0
   -0.3441    1.7034    0.2727 C   0  0  0  0  0  0  0  0  0  0  0  0
    0.2787    0.3768    0.6823 C   0  0  0  0  0  0  0  0  0  0  0  0
   -0.4722   -0.8096    0.0636 C   0  0  0  0  0  0  0  0  0  0  0  0
    0.2242   -2.0930    0.5156 C   0  0  0  0  0  0  0  0  0  0  0  0
    1.5823   -2.1703   -0.1810 C   0  0  0  0  0  0  0  0  0  0  0  0
    2.3369   -0.8732   -0.0538 C   0  0  0  0  0  0  0  0  0  0  0  0
    1.7359    0.3078    0.3298 C   0  0  0  0  0  0  0  0  0  0  0  0
    2.4882    1.4720    0.4117 C   0  0  0  0  0  0  0  0  0  0  0  0
    3.8361    1.4593    0.1231 C   0  0  0  0  0  0  0  0  0  0  0  0
    4.4464    0.2713   -0.2535 C   0  0  0  0  0  0  0  0  0  0  0  0
    5.7756    0.2463   -0.5352 O   0  0  0  0  0  0  0  0  0  0  0  0
    3.6955   -0.8879   -0.3405 C   0  0  0  0  0  0  0  0  0  0  0  0
   -1.8997   -0.7356    0.5591 C   0  0  0  0  0  0  0  0  0  0  0  0
   -2.8548   -1.8210    0.0749 C   0  0  0  0  0  0  0  0  0  0  0  0
   -4.2332   -1.1261   -0.0553 C   0  0  0  0  0  0  0  0  0  0  0  0
   -4.0068    0.3898    0.2535 C   0  0  0  0  0  0  0  0  0  0  0  0
   -4.8174    1.2053   -0.5951 O   0  0  0  0  0  0  0  0  0  0  0  0
   -1.1981    0.6824   -1.7349 H   0  0  0  0  0  0  0  0  0  0  0  0
   -2.6721   -0.2772   -2.0078 H   0  0  0  0  0  0  0  0  0  0  0  0
   -2.7637    1.4997   -1.9563 H   0  0  0  0  0  0  0  0  0  0  0  0
   -2.2825    2.6741    0.2977 H   0  0  0  0  0  0  0  0  0  0  0  0
   -1.9508    1.6597    1.7277 H   0  0  0  0  0  0  0  0  0  0  0  0
   -0.2402    1.8314   -0.8047 H   0  0  0  0  0  0  0  0  0  0  0  0
    0.1745    2.5159    0.7817 H   0  0  0  0  0  0  0  0  0  0  0  0
    0.2042    0.2917    1.7664 H   0  0  0  0  0  0  0  0  0  0  0  0
   -0.4417   -0.7380   -1.0236 H   0  0  0  0  0  0  0  0  0  0  0  0
    0.3657   -2.0736    1.5962 H   0  0  0  0  0  0  0  0  0  0  0  0
   -0.3807   -2.9566    0.2389 H   0  0  0  0  0  0  0  0  0  0  0  0
    2.1695   -2.9705    0.2696 H   0  0  0  0  0  0  0  0  0  0  0  0
    1.4296   -2.3923   -1.2372 H   0  0  0  0  0  0  0  0  0  0  0  0
    2.0126    2.3965    0.7040 H   0  0  0  0  0  0  0  0  0  0  0  0
    4.4140    2.3692    0.1895 H   0  0  0  0  0  0  0  0  0  0  0  0
    6.3365    0.0610    0.2303 H   0  0  0  0  0  0  0  0  0  0  0  0
    4.1703   -1.8122   -0.6348 H   0  0  0  0  0  0  0  0  0  0  0  0
   -1.9110   -0.6923    1.6482 H   0  0  0  0  0  0  0  0  0  0  0  0
   -2.5318   -2.2037   -0.8932 H   0  0  0  0  0  0  0  0  0  0  0  0
   -2.9072   -2.6302    0.8033 H   0  0  0  0  0  0  0  0  0  0  0  0
   -4.6104   -1.2309   -1.0726 H   0  0  0  0  0  0  0  0  0  0  0  0
   -4.9393   -1.5600    0.6526 H   0  0  0  0  0  0  0  0  0  0  0  0
   -4.2113    0.6045    1.3023 H   0  0  0  0  0  0  0  0  0  0  0  0
   -5.7676    1.0616   -0.4878 H   0  0  0  0  0  0  0  0  0  0  0  0
  1  2  1  0  0  0  0
  1 21  1  0  0  0  0
  1 22  1  0  0  0  0
  1 23  1  0  0  0  0
  2  3  1  0  0  0  0
  2 16  1  0  0  0  0
  2 19  1  0  0  0  0
  3  4  1  0  0  0  0
  3 24  1  0  0  0  0
  3 25  1  0  0  0  0
  4  5  1  0  0  0  0
  4 26  1  0  0  0  0
  4 27  1  0  0  0  0
  5  6  1  0  0  0  0
  5 10  1  0  0  0  0
  5 28  1  0  0  0  0
  6  7  1  0  0  0  0
  6 16  1  0  0  0  0
  6 29  1  0  0  0  0
  7  8  1  0  0  0  0
  7 30  1  0  0  0  0
  7 31  1  0  0  0  0
  8  9  1  0  0  0  0
  8 32  1  0  0  0  0
  8 33  1  0  0  0  0
  9 10  2  0  0  0  0
  9 15  1  0  0  0  0
 10 11  1  0  0  0  0
 11 12  2  0  0  0  0
 11 34  1  0  0  0  0
 12 13  1  0  0  0  0
 12 35  1  0  0  0  0
 13 14  1  0  0  0  0
 13 15  2  0  0  0  0
 14 36  1  0  0  0  0
 15 37  1  0  0  0  0
 16 17  1  0  0  0  0
 16 38  1  0  0  0  0
 17 18  1  0  0  0  0
 17 39  1  0  0  0  0
 17 40  1  0  0  0  0
 18 19  1  0  0  0  0
 18 41  1  0  0  0  0
 18 42  1  0  0  0  0
 19 20  1  0  0  0  0
 19 43  1  0  0  0  0
 20 44  1  0  0  0  0
M  END
>  <likely_enzyme_classes>
monooxygenase; alcohol dehydrogenase

>  <activity>
-8.9

>  <molID>
mol000004

>  <name>
17b-estradiol

>  <reference>
Jurgens et al. (2002); Cormier et al. (2015)

>  <speciation_state_pH7.4>
neutral

>  <substance_type>
steroidal drug

>  <smiles>
C[C@]12CC[C@@H]3c4ccc(O)cc4CC[C@H]3[C@@H]1CC[C@@H]2O

>  <inchi>
InChI=1S/C18H24O2/c1-18-9-8-14-13-5-3-12(19)10-11(13)2-4-15(14)16(18)6-7-17(18)20/h3,5,10,14-17,19-20H,2,4,6-9H2,1H3/t14-,15-,16+,17+,18+/m1/s1

>  <inchikey>
VOXZDWNPVJITMN-ZBRFXRBCSA-N

$$$$

emcorina  05091710353D 1   1.00000     0.00000 
CORINA evaluation license 3.49 0066  11.04.2013
 13 12  0  0  0  0  0  0  0  0999 V2000
    1.3856    1.2492    0.0260 C   0  0  0  0  0  0  0  0  0  0  0  0
    0.6676    0.0001   -0.4888 C   0  0  0  0  0  0  0  0  0  0  0  0
    1.3856   -1.2492    0.0256 C   0  0  0  0  0  0  0  0  0  0  0  0
   -0.7167   -0.0000   -0.0094 N   0  3  0  0  0  0  0  0  0  0  0  0
   -1.6374    0.0001   -0.8068 O   0  5  0  0  0  0  0  0  0  0  0  0
   -0.9470   -0.0002    1.1867 O   0  0  0  0  0  0  0  0  0  0  0  0
    2.4155    1.2493   -0.3307 H   0  0  0  0  0  0  0  0  0  0  0  0
    0.8741    2.1393   -0.3405 H   0  0  0  0  0  0  0  0  0  0  0  0
    1.3786    1.2491    1.1160 H   0  0  0  0  0  0  0  0  0  0  0  0
    0.6746    0.0003   -1.5788 H   0  0  0  0  0  0  0  0  0  0  0  0
    1.3786   -1.2494    1.1156 H   0  0  0  0  0  0  0  0  0  0  0  0
    0.8741   -2.1392   -0.3412 H   0  0  0  0  0  0  0  0  0  0  0  0
    2.4156   -1.2492   -0.3311 H   0  0  0  0  0  0  0  0  0  0  0  0
  1  2  1  0  0  0  0
  1  7  1  0  0  0  0
  1  8  1  0  0  0  0
  1  9  1  0  0  0  0
  2  3  1  0  0  0  0
  2  4  1  0  0  0  0
  2 10  1  0  0  0  0
  3 11  1  0  0  0  0
  3 12  1  0  0  0  0
  3 13  1  0  0  0  0
  4  5  1  0  0  0  0
  4  6  2  0  0  0  0
M  CHG  2   4   1   5  -1
M  END
>  <likely_enzyme_classes>
monooxygenase; dioxygenase

>  <activity>
-10.8

>  <molID>
mol000005

>  <name>
2-nitropropane

>  <reference>
Capel and Larson (1995)

>  <speciation_state_pH7.4>
neutral

>  <substance_type>
chemical substance

>  <smiles>
CC(C)[N+](=O)[O-]

>  <inchi>
InChI=1S/C3H7NO2/c1-3(2)4(5)6/h3H,1-2H3

>  <inchikey>
FGLBSLMDCBOPQK-UHFFFAOYSA-N

$$$$

emcorina  05091710353D 1   1.00000     0.00000 
CORINA evaluation license 3.49 0066  11.04.2013
 15 15  0  0  0  0  0  0  0  0999 V2000
    2.7630   -1.4057   -0.0313 O   0  0  0  0  0  0  0  0  0  0  0  0
    1.7910   -0.4559   -0.0186 C   0  0  0  0  0  0  0  0  0  0  0  0
    2.1333    0.8883   -0.0096 C   0  0  0  0  0  0  0  0  0  0  0  0
    1.1433    1.8520    0.0028 C   0  0  0  0  0  0  0  0  0  0  0  0
   -0.1874    1.4776    0.0068 C   0  0  0  0  0  0  0  0  0  0  0  0
   -0.5313    0.1381   -0.0022 C   0  0  0  0  0  0  0  0  0  0  0  0
    0.4546   -0.8291   -0.0204 C   0  0  0  0  0  0  0  0  0  0  0  0
   -1.9569   -0.2593    0.0021 N   0  3  0  0  0  0  0  0  0  0  0  0
   -2.8268    0.5932    0.0135 O   0  5  0  0  0  0  0  0  0  0  0  0
   -2.2604   -1.4389   -0.0058 O   0  0  0  0  0  0  0  0  0  0  0  0
    3.0489   -1.6876    0.8484 H   0  0  0  0  0  0  0  0  0  0  0  0
    3.1728    1.1813   -0.0120 H   0  0  0  0  0  0  0  0  0  0  0  0
    1.4093    2.8987    0.0098 H   0  0  0  0  0  0  0  0  0  0  0  0
   -0.9598    2.2324    0.0172 H   0  0  0  0  0  0  0  0  0  0  0  0
    0.1856   -1.8750   -0.0277 H   0  0  0  0  0  0  0  0  0  0  0  0
  1  2  1  0  0  0  0
  1 11  1  0  0  0  0
  2  3  2  0  0  0  0
  2  7  1  0  0  0  0
  3  4  1  0  0  0  0
  3 12  1  0  0  0  0
  4  5  2  0  0  0  0
  4 13  1  0  0  0  0
  5  6  1  0  0  0  0
  5 14  1  0  0  0  0
  6  7  2  0  0  0  0
  6  8  1  0  0  0  0
  7 15  1  0  0  0  0
  8  9  1  0  0  0  0
  8 10  2  0  0  0  0
M  CHG  2   8   1   9  -1
M  END
>  <likely_enzyme_classes>
monooxygenase; nitroreductase; dioxygenase

>  <activity>
-9.6

>  <molID>
mol000006

>  <name>
3-nitrophenol

>  <reference>
Mackay handbook of physical-chemical properties

>  <speciation_state_pH7.4>
neutral

>  <substance_type>
chemical substance

>  <smiles>
O=[N+]([O-])c1cccc(O)c1

>  <inchi>
InChI=1S/C6H5NO3/c8-6-3-1-2-5(4-6)7(9)10/h1-4,8H

>  <inchikey>
RTZZCYNQPHTPPL-UHFFFAOYSA-N

$$$$

emcorina  05091710353D 1   1.00000     0.00000 
CORINA evaluation license 3.49 0066  11.04.2013
 23 24  0  0  0  0  0  0  0  0999 V2000
    0.7821    2.0701   -0.5100 O   0  0  0  0  0  0  0  0  0  0  0  0
    1.4094    0.9004   -0.2207 C   0  0  0  0  0  0  0  0  0  0  0  0
    2.7934    0.8391   -0.2056 C   0  0  0  0  0  0  0  0  0  0  0  0
    3.4306   -0.3518    0.0883 C   0  0  0  0  0  0  0  0  0  0  0  0
    2.6925   -1.4876    0.3693 C   0  0  0  0  0  0  0  0  0  0  0  0
    1.3128   -1.4406    0.3578 C   0  0  0  0  0  0  0  0  0  0  0  0
    0.6607   -0.2446    0.0685 C   0  0  0  0  0  0  0  0  0  0  0  0
   -0.8215   -0.1886    0.0548 C   0  0  0  0  0  0  0  0  0  0  0  0
   -1.5504   -1.1318   -0.6672 C   0  0  0  0  0  0  0  0  0  0  0  0
   -2.9293   -1.0749   -0.6765 C   0  0  0  0  0  0  0  0  0  0  0  0
   -3.5879   -0.0841    0.0292 C   0  0  0  0  0  0  0  0  0  0  0  0
   -2.8696    0.8547    0.7476 C   0  0  0  0  0  0  0  0  0  0  0  0
   -1.4905    0.8039    0.7686 C   0  0  0  0  0  0  0  0  0  0  0  0
    0.6004    2.1966   -1.4513 H   0  0  0  0  0  0  0  0  0  0  0  0
    3.3750    1.7225   -0.4242 H   0  0  0  0  0  0  0  0  0  0  0  0
    4.5097   -0.3958    0.0984 H   0  0  0  0  0  0  0  0  0  0  0  0
    3.1974   -2.4145    0.5981 H   0  0  0  0  0  0  0  0  0  0  0  0
    0.7398   -2.3294    0.5772 H   0  0  0  0  0  0  0  0  0  0  0  0
   -1.0372   -1.9056   -1.2188 H   0  0  0  0  0  0  0  0  0  0  0  0
   -3.4952   -1.8050   -1.2360 H   0  0  0  0  0  0  0  0  0  0  0  0
   -4.6671   -0.0431    0.0189 H   0  0  0  0  0  0  0  0  0  0  0  0
   -3.3890    1.6261    1.2967 H   0  0  0  0  0  0  0  0  0  0  0  0
   -0.9307    1.5372    1.3301 H   0  0  0  0  0  0  0  0  0  0  0  0
  1  2  1  0  0  0  0
  1 14  1  0  0  0  0
  2  3  2  0  0  0  0
  2  7  1  0  0  0  0
  3  4  1  0  0  0  0
  3 15  1  0  0  0  0
  4  5  2  0  0  0  0
  4 16  1  0  0  0  0
  5  6  1  0  0  0  0
  5 17  1  0  0  0  0
  6  7  2  0  0  0  0
  6 18  1  0  0  0  0
  7  8  1  0  0  0  0
  8  9  2  0  0  0  0
  8 13  1  0  0  0  0
  9 10  1  0  0  0  0
  9 19  1  0  0  0  0
 10 11  2  0  0  0  0
 10 20  1  0  0  0  0
 11 12  1  0  0  0  0
 11 21  1  0  0  0  0
 12 13  2  0  0  0  0
 12 22  1  0  0  0  0
 13 23  1  0  0  0  0
M  END
>  <likely_enzyme_classes>
monooxygenase

>  <activity>
-9.4

>  <molID>
mol000007

>  <name>
2-phenylphenol

>  <reference>
Mackay handbook of physical-chemical properties

>  <speciation_state_pH7.4>
neutral

>  <substance_type>
chemical substance

>  <smiles>
Oc1ccccc1-c1ccccc1

>  <inchi>
InChI=1S/C12H10O/c13-12-9-5-4-8-11(12)10-6-2-1-3-7-10/h1-9,13H

>  <inchikey>
LLEMOWNGBBNAJR-UHFFFAOYSA-N

$$$$

emcorina  05091710353D 1   1.00000     0.00000 
CORINA evaluation license 3.49 0066  11.04.2013
 16 15  0  0  0  0  0  0  0  0999 V2000
    2.4680   -0.1905   -0.0001 C   0  0  0  0  0  0  0  0  0  0  0  0
    1.3051    0.8037   -0.0000 C   0  0  0  0  0  0  0  0  0  0  0  0
   -0.0000    0.0502   -0.0000 C   0  0  0  0  0  0  0  0  0  0  0  0
    0.0000   -1.1574    0.0000 O   0  0  0  0  0  0  0  0  0  0  0  0
   -1.3051    0.8037    0.0000 C   0  0  0  0  0  0  0  0  0  0  0  0
   -2.4680   -0.1906    0.0001 C   0  0  0  0  0  0  0  0  0  0  0  0
    2.4103   -0.8171    0.8899 H   0  0  0  0  0  0  0  0  0  0  0  0
    2.4103   -0.8171   -0.8901 H   0  0  0  0  0  0  0  0  0  0  0  0
    3.4120    0.3545   -0.0001 H   0  0  0  0  0  0  0  0  0  0  0  0
    1.3628    1.4304    0.8899 H   0  0  0  0  0  0  0  0  0  0  0  0
    1.3628    1.4304   -0.8900 H   0  0  0  0  0  0  0  0  0  0  0  0
   -1.3628    1.4303    0.8900 H   0  0  0  0  0  0  0  0  0  0  0  0
   -1.3629    1.4303   -0.8899 H   0  0  0  0  0  0  0  0  0  0  0  0
   -2.4103   -0.8172   -0.8899 H   0  0  0  0  0  0  0  0  0  0  0  0
   -2.4102   -0.8172    0.8901 H   0  0  0  0  0  0  0  0  0  0  0  0
   -3.4120    0.3544    0.0001 H   0  0  0  0  0  0  0  0  0  0  0  0
  1  2  1  0  0  0  0
  1  7  1  0  0  0  0
  1  8  1  0  0  0  0
  1  9  1  0  0  0  0
  2  3  1  0  0  0  0
  2 10  1  0  0  0  0
  2 11  1  0  0  0  0
  3  4  2  0  0  0  0
  3  5  1  0  0  0  0
  5  6  1  0  0  0  0
  5 12  1  0  0  0  0
  5 13  1  0  0  0  0
  6 14  1  0  0  0  0
  6 15  1  0  0  0  0
  6 16  1  0  0  0  0
M  END
>  <likely_enzyme_classes>
monooxygenase

>  <activity>
-10.1

>  <molID>
mol000009

>  <name>
3-pentanone

>  <reference>
Shimp & Pfaender (1985); Aronson (1999); Palumbo et al. (1988)

>  <speciation_state_pH7.4>
neutral

>  <substance_type>
chemical substance

>  <smiles>
CCC(=O)CC

>  <inchi>
InChI=1S/C5H10O/c1-3-5(6)4-2/h3-4H2,1-2H3

>  <inchikey>
FDPIMTJIUBPUKL-UHFFFAOYSA-N

$$$$

emcorina  05091710353D 1   1.00000     0.00000 
CORINA evaluation license 3.49 0066  11.04.2013
 15 15  0  0  0  0  0  0  0  0999 V2000
    3.4920   -0.0000   -0.0247 O   0  0  0  0  0  0  0  0  0  0  0  0
    2.1330   -0.0000   -0.0171 C   0  0  0  0  0  0  0  0  0  0  0  0
    1.4382    1.2008   -0.0145 C   0  0  0  0  0  0  0  0  0  0  0  0
    0.0568    1.1981   -0.0073 C   0  0  0  0  0  0  0  0  0  0  0  0
   -0.6333   -0.0000   -0.0028 C   0  0  0  0  0  0  0  0  0  0  0  0
    0.0568   -1.1981   -0.0054 C   0  0  0  0  0  0  0  0  0  0  0  0
    1.4382   -1.2008   -0.0179 C   0  0  0  0  0  0  0  0  0  0  0  0
   -2.1134    0.0000    0.0054 N   0  3  0  0  0  0  0  0  0  0  0  0
   -2.7224    1.0548    0.0081 O   0  5  0  0  0  0  0  0  0  0  0  0
   -2.7224   -1.0548    0.0094 O   0  0  0  0  0  0  0  0  0  0  0  0
    3.8902    0.0008    0.8565 H   0  0  0  0  0  0  0  0  0  0  0  0
    1.9769    2.1369   -0.0176 H   0  0  0  0  0  0  0  0  0  0  0  0
   -0.4845    2.1326   -0.0049 H   0  0  0  0  0  0  0  0  0  0  0  0
   -0.4846   -2.1326   -0.0015 H   0  0  0  0  0  0  0  0  0  0  0  0
    1.9768   -2.1369   -0.0200 H   0  0  0  0  0  0  0  0  0  0  0  0
  1  2  1  0  0  0  0
  1 11  1  0  0  0  0
  2  3  2  0  0  0  0
  2  7  1  0  0  0  0
  3  4  1  0  0  0  0
  3 12  1  0  0  0  0
  4  5  2  0  0  0  0
  4 13  1  0  0  0  0
  5  6  1  0  0  0  0
  5  8  1  0  0  0  0
  6  7  2  0  0  0  0
  6 14  1  0  0  0  0
  7 15  1  0  0  0  0
  8  9  1  0  0  0  0
  8 10  2  0  0  0  0
M  CHG  2   8   1   9  -1
M  END
>  <likely_enzyme_classes>
monooxygenase; dioxygenase; nitroreductase

>  <activity>
-10.1

>  <molID>
mol000010

>  <name>
4-nitrophenol

>  <reference>
Mackay handbook of physical-chemical properties

>  <speciation_state_pH7.4>
neutral

>  <substance_type>
chemical substance

>  <smiles>
O=[N+]([O-])c1ccc(O)cc1

>  <inchi>
InChI=1S/C6H5NO3/c8-6-3-1-5(2-4-6)7(9)10/h1-4,8H

>  <inchikey>
BTJIUGUIPKRLHP-UHFFFAOYSA-N

$$$$

emcorina  05091710353D 1   1.00000     0.00000 
CORINA evaluation license 3.49 0066  11.04.2013
 17 17  0  0  0  0  0  0  0  0999 V2000
   -2.1679   -0.0015    0.3208 O   0  0  0  0  0  0  0  0  0  0  0  0
   -1.0383   -0.0004   -0.1061 C   0  0  0  0  0  0  0  0  0  0  0  0
   -0.3133    1.2990   -0.3784 C   0  0  0  0  0  0  0  0  0  0  0  0
    1.0500    1.2517    0.3196 C   0  0  0  0  0  0  0  0  0  0  0  0
    1.8077    0.0011   -0.1293 C   0  0  0  0  0  0  0  0  0  0  0  0
    1.0513   -1.2514    0.3164 C   0  0  0  0  0  0  0  0  0  0  0  0
   -0.3099   -1.2983   -0.3762 C   0  0  0  0  0  0  0  0  0  0  0  0
   -0.1708    1.4206   -1.4522 H   0  0  0  0  0  0  0  0  0  0  0  0
   -0.8963    2.1326    0.0131 H   0  0  0  0  0  0  0  0  0  0  0  0
    1.6247    2.1394    0.0553 H   0  0  0  0  0  0  0  0  0  0  0  0
    0.9046    1.2207    1.3994 H   0  0  0  0  0  0  0  0  0  0  0  0
    1.8978    0.0025   -1.2156 H   0  0  0  0  0  0  0  0  0  0  0  0
    2.8027    0.0010    0.3157 H   0  0  0  0  0  0  0  0  0  0  0  0
    1.6269   -2.1379    0.0499 H   0  0  0  0  0  0  0  0  0  0  0  0
    0.9059   -1.2232    1.3963 H   0  0  0  0  0  0  0  0  0  0  0  0
   -0.8908   -2.1340    0.0142 H   0  0  0  0  0  0  0  0  0  0  0  0
   -0.1700   -1.4165   -1.4507 H   0  0  0  0  0  0  0  0  0  0  0  0
  1  2  2  0  0  0  0
  2  3  1  0  0  0  0
  2  7  1  0  0  0  0
  3  4  1  0  0  0  0
  3  8  1  0  0  0  0
  3  9  1  0  0  0  0
  4  5  1  0  0  0  0
  4 10  1  0  0  0  0
  4 11  1  0  0  0  0
  5  6  1  0  0  0  0
  5 12  1  0  0  0  0
  5 13  1  0  0  0  0
  6  7  1  0  0  0  0
  6 14  1  0  0  0  0
  6 15  1  0  0  0  0
  7 16  1  0  0  0  0
  7 17  1  0  0  0  0
M  END
>  <likely_enzyme_classes>
monooxygenase

>  <activity>
-9.4

>  <molID>
mol000011

>  <name>
cyclohexanone

>  <reference>
Mackay handbook of physical-chemical properties

>  <speciation_state_pH7.4>
neutral

>  <substance_type>
chemical substance

>  <smiles>
O=C1CCCCC1

>  <inchi>
InChI=1S/C6H10O/c7-6-4-2-1-3-5-6/h1-5H2

>  <inchikey>
JHIVVAPYMSGYDF-UHFFFAOYSA-N

$$$$

emcorina  05091710353D 1   1.00000     0.00000 
CORINA evaluation license 3.49 0066  11.04.2013
 42 45  0  0  0  0  0  0  0  0999 V2000
   -2.2147    0.5364   -1.6916 C   0  0  0  0  0  0  0  0  0  0  0  0
   -2.5433    0.5593   -0.1975 C   0  0  0  0  0  0  0  0  0  0  0  0
   -1.8943    1.7692    0.4398 C   0  0  0  0  0  0  0  0  0  0  0  0
   -0.3880    1.7136    0.1211 C   0  0  0  0  0  0  0  0  0  0  0  0
    0.2171    0.4074    0.6147 C   0  0  0  0  0  0  0  0  0  0  0  0
   -0.5138   -0.8078    0.0294 C   0  0  0  0  0  0  0  0  0  0  0  0
    0.1646   -2.0671    0.5692 C   0  0  0  0  0  0  0  0  0  0  0  0
    1.5454   -2.1799   -0.0756 C   0  0  0  0  0  0  0  0  0  0  0  0
    2.2963   -0.8772    0.0076 C   0  0  0  0  0  0  0  0  0  0  0  0
    1.6850    0.3215    0.3115 C   0  0  0  0  0  0  0  0  0  0  0  0
    2.4351    1.4891    0.3565 C   0  0  0  0  0  0  0  0  0  0  0  0
    3.7912    1.4628    0.1095 C   0  0  0  0  0  0  0  0  0  0  0  0
    4.4115    0.2575   -0.1869 C   0  0  0  0  0  0  0  0  0  0  0  0
    5.7487    0.2190   -0.4264 O   0  0  0  0  0  0  0  0  0  0  0  0
    3.6629   -0.9053   -0.2372 C   0  0  0  0  0  0  0  0  0  0  0  0
   -1.9591   -0.7141    0.4755 C   0  0  0  0  0  0  0  0  0  0  0  0
   -2.8992   -1.7941   -0.0749 C   0  0  0  0  0  0  0  0  0  0  0  0
   -4.2869   -1.0996   -0.0082 C   0  0  0  0  0  0  0  0  0  0  0  0
   -4.0218    0.3956   -0.0122 C   0  0  0  0  0  0  0  0  0  0  0  0
   -4.8375    1.2794    0.0973 O   0  0  0  0  0  0  0  0  0  0  0  0
   -1.1343    0.5862   -1.8269 H   0  0  0  0  0  0  0  0  0  0  0  0
   -2.5940   -0.3853   -2.1329 H   0  0  0  0  0  0  0  0  0  0  0  0
   -2.6818    1.3919   -2.1795 H   0  0  0  0  0  0  0  0  0  0  0  0
   -2.3262    2.6808    0.0267 H   0  0  0  0  0  0  0  0  0  0  0  0
   -2.0450    1.7439    1.5190 H   0  0  0  0  0  0  0  0  0  0  0  0
   -0.2457    1.7907   -0.9568 H   0  0  0  0  0  0  0  0  0  0  0  0
    0.1136    2.5490    0.6096 H   0  0  0  0  0  0  0  0  0  0  0  0
    0.1077    0.3747    1.6987 H   0  0  0  0  0  0  0  0  0  0  0  0
   -0.4514   -0.7902   -1.0587 H   0  0  0  0  0  0  0  0  0  0  0  0
    0.2693   -1.9931    1.6516 H   0  0  0  0  0  0  0  0  0  0  0  0
   -0.4321   -2.9435    0.3160 H   0  0  0  0  0  0  0  0  0  0  0  0
    2.1163   -2.9543    0.4366 H   0  0  0  0  0  0  0  0  0  0  0  0
    1.4285   -2.4582   -1.1230 H   0  0  0  0  0  0  0  0  0  0  0  0
    1.9515    2.4269    0.5867 H   0  0  0  0  0  0  0  0  0  0  0  0
    4.3675    2.3754    0.1462 H   0  0  0  0  0  0  0  0  0  0  0  0
    6.2858    0.0737    0.3644 H   0  0  0  0  0  0  0  0  0  0  0  0
    4.1459   -1.8431   -0.4685 H   0  0  0  0  0  0  0  0  0  0  0  0
   -2.0256   -0.6590    1.5620 H   0  0  0  0  0  0  0  0  0  0  0  0
   -2.6408   -2.0443   -1.1039 H   0  0  0  0  0  0  0  0  0  0  0  0
   -2.8802   -2.6822    0.5568 H   0  0  0  0  0  0  0  0  0  0  0  0
   -4.8879   -1.3825   -0.8725 H   0  0  0  0  0  0  0  0  0  0  0  0
   -4.8005   -1.3792    0.9116 H   0  0  0  0  0  0  0  0  0  0  0  0
  1  2  1  0  0  0  0
  1 21  1  0  0  0  0
  1 22  1  0  0  0  0
  1 23  1  0  0  0  0
  2  3  1  0  0  0  0
  2 16  1  0  0  0  0
  2 19  1  0  0  0  0
  3  4  1  0  0  0  0
  3 24  1  0  0  0  0
  3 25  1  0  0  0  0
  4  5  1  0  0  0  0
  4 26  1  0  0  0  0
  4 27  1  0  0  0  0
  5  6  1  0  0  0  0
  5 10  1  0  0  0  0
  5 28  1  0  0  0  0
  6  7  1  0  0  0  0
  6 16  1  0  0  0  0
  6 29  1  0  0  0  0
  7  8  1  0  0  0  0
  7 30  1  0  0  0  0
  7 31  1  0  0  0  0
  8  9  1  0  0  0  0
  8 32  1  0  0  0  0
  8 33  1  0  0  0  0
  9 10  2  0  0  0  0
  9 15  1  0  0  0  0
 10 11  1  0  0  0  0
 11 12  2  0  0  0  0
 11 34  1  0  0  0  0
 12 13  1  0  0  0  0
 12 35  1  0  0  0  0
 13 14  1  0  0  0  0
 13 15  2  0  0  0  0
 14 36  1  0  0  0  0
 15 37  1  0  0  0  0
 16 17  1  0  0  0  0
 16 38  1  0  0  0  0
 17 18  1  0  0  0  0
 17 39  1  0  0  0  0
 17 40  1  0  0  0  0
 18 19  1  0  0  0  0
 18 41  1  0  0  0  0
 18 42  1  0  0  0  0
 19 20  2  0  0  0  0
M  END
>  <likely_enzyme_classes>
monooxygenase

>  <activity>
-9

>  <molID>
mol000012

>  <name>
estrone

>  <reference>
Jurgens et al. (2002); Cormier et al. (2015)

>  <speciation_state_pH7.4>
neutral

>  <substance_type>
steroidal drug

>  <smiles>
C[C@]12CC[C@@H]3c4ccc(O)cc4CC[C@H]3[C@@H]1CCC2=O

>  <inchi>
InChI=1S/C18H22O2/c1-18-9-8-14-13-5-3-12(19)10-11(13)2-4-15(14)16(18)6-7-17(18)20/h3,5,10,14-16,19H,2,4,6-9H2,1H3/t14-,15-,16+,18+/m1/s1

>  <inchikey>
DNXHEGUUPJUMQT-CBZIJGRNSA-N

$$$$

emcorina  05091710353D 1   1.00000     0.00000 
CORINA evaluation license 3.49 0066  11.04.2013
 46 49  0  0  0  0  0  0  0  0999 V2000
   -1.7653    0.1379   -1.8905 C   0  0  0  0  0  0  0  0  0  0  0  0
   -2.1402    0.3225   -0.4187 C   0  0  0  0  0  0  0  0  0  0  0  0
   -1.5716    1.6304    0.0903 C   0  0  0  0  0  0  0  0  0  0  0  0
   -0.0529    1.6113   -0.1684 C   0  0  0  0  0  0  0  0  0  0  0  0
    0.5906    0.4051    0.5000 C   0  0  0  0  0  0  0  0  0  0  0  0
   -0.0614   -0.9061    0.0425 C   0  0  0  0  0  0  0  0  0  0  0  0
    0.6509   -2.0566    0.7542 C   0  0  0  0  0  0  0  0  0  0  0  0
    2.0598   -2.1775    0.1752 C   0  0  0  0  0  0  0  0  0  0  0  0
    2.7478   -0.8388    0.1255 C   0  0  0  0  0  0  0  0  0  0  0  0
    2.0717    0.3561    0.2602 C   0  0  0  0  0  0  0  0  0  0  0  0
    2.7664    1.5561    0.1887 C   0  0  0  0  0  0  0  0  0  0  0  0
    4.1312    1.5672   -0.0056 C   0  0  0  0  0  0  0  0  0  0  0  0
    4.8164    0.3672   -0.1316 C   0  0  0  0  0  0  0  0  0  0  0  0
    6.1626    0.3663   -0.3179 O   0  0  0  0  0  0  0  0  0  0  0  0
    4.1230   -0.8286   -0.0663 C   0  0  0  0  0  0  0  0  0  0  0  0
   -1.5255   -0.8299    0.4238 C   0  0  0  0  0  0  0  0  0  0  0  0
   -2.3942   -2.0184   -0.0025 C   0  0  0  0  0  0  0  0  0  0  0  0
   -3.8224   -1.4093   -0.0428 C   0  0  0  0  0  0  0  0  0  0  0  0
   -3.6390    0.1081   -0.2420 C   0  0  0  0  0  0  0  0  0  0  0  0
   -4.3229    0.5392   -1.4203 O   0  0  0  0  0  0  0  0  0  0  0  0
   -4.1376    0.8409    0.9333 C   0  0  0  0  0  0  0  0  0  0  0  0
   -4.5353    1.4253    1.8706 C   0  0  0  0  0  0  0  0  0  0  0  0
   -0.6838    0.2147   -2.0023 H   0  0  0  0  0  0  0  0  0  0  0  0
   -2.0969   -0.8435   -2.2296 H   0  0  0  0  0  0  0  0  0  0  0  0
   -2.2481    0.9111   -2.4881 H   0  0  0  0  0  0  0  0  0  0  0  0
   -2.0272    2.4643   -0.4438 H   0  0  0  0  0  0  0  0  0  0  0  0
   -1.7634    1.7259    1.1591 H   0  0  0  0  0  0  0  0  0  0  0  0
    0.1279    1.5657   -1.2423 H   0  0  0  0  0  0  0  0  0  0  0  0
    0.3910    2.5229    0.2316 H   0  0  0  0  0  0  0  0  0  0  0  0
    0.4398    0.4970    1.5756 H   0  0  0  0  0  0  0  0  0  0  0  0
    0.0487   -1.0158   -1.0363 H   0  0  0  0  0  0  0  0  0  0  0  0
    0.7090   -1.8484    1.8225 H   0  0  0  0  0  0  0  0  0  0  0  0
    0.1047   -2.9854    0.5892 H   0  0  0  0  0  0  0  0  0  0  0  0
    2.6440   -2.8562    0.7966 H   0  0  0  0  0  0  0  0  0  0  0  0
    1.9972   -2.5842   -0.8342 H   0  0  0  0  0  0  0  0  0  0  0  0
    2.2324    2.4898    0.2858 H   0  0  0  0  0  0  0  0  0  0  0  0
    4.6642    2.5050   -0.0599 H   0  0  0  0  0  0  0  0  0  0  0  0
    6.6732    0.3433    0.5030 H   0  0  0  0  0  0  0  0  0  0  0  0
    4.6564   -1.7625   -0.1650 H   0  0  0  0  0  0  0  0  0  0  0  0
   -1.6317   -0.6434    1.4925 H   0  0  0  0  0  0  0  0  0  0  0  0
   -2.0999   -2.3769   -0.9889 H   0  0  0  0  0  0  0  0  0  0  0  0
   -2.3378   -2.8208    0.7331 H   0  0  0  0  0  0  0  0  0  0  0  0
   -4.3888   -1.8380   -0.8694 H   0  0  0  0  0  0  0  0  0  0  0  0
   -4.3358   -1.5968    0.9003 H   0  0  0  0  0  0  0  0  0  0  0  0
   -5.2786    0.3942   -1.3956 H   0  0  0  0  0  0  0  0  0  0  0  0
   -4.8909    1.9480    2.7089 H   0  0  0  0  0  0  0  0  0  0  0  0
  1  2  1  0  0  0  0
  1 23  1  0  0  0  0
  1 24  1  0  0  0  0
  1 25  1  0  0  0  0
  2  3  1  0  0  0  0
  2 16  1  0  0  0  0
  2 19  1  0  0  0  0
  3  4  1  0  0  0  0
  3 26  1  0  0  0  0
  3 27  1  0  0  0  0
  4  5  1  0  0  0  0
  4 28  1  0  0  0  0
  4 29  1  0  0  0  0
  5  6  1  0  0  0  0
  5 10  1  0  0  0  0
  5 30  1  0  0  0  0
  6  7  1  0  0  0  0
  6 16  1  0  0  0  0
  6 31  1  0  0  0  0
  7  8  1  0  0  0  0
  7 32  1  0  0  0  0
  7 33  1  0  0  0  0
  8  9  1  0  0  0  0
  8 34  1  0  0  0  0
  8 35  1  0  0  0  0
  9 10  2  0  0  0  0
  9 15  1  0  0  0  0
 10 11  1  0  0  0  0
 11 12  2  0  0  0  0
 11 36  1  0  0  0  0
 12 13  1  0  0  0  0
 12 37  1  0  0  0  0
 13 14  1  0  0  0  0
 13 15  2  0  0  0  0
 14 38  1  0  0  0  0
 15 39  1  0  0  0  0
 16 17  1  0  0  0  0
 16 40  1  0  0  0  0
 17 18  1  0  0  0  0
 17 41  1  0  0  0  0
 17 42  1  0  0  0  0
 18 19  1  0  0  0  0
 18 43  1  0  0  0  0
 18 44  1  0  0  0  0
 19 20  1  0  0  0  0
 19 21  1  0  0  0  0
 20 45  1  0  0  0  0
 21 22  3  0  0  0  0
 22 46  1  0  0  0  0
M  END
>  <likely_enzyme_classes>
monooxygenase

>  <activity>
-10.1

>  <molID>
mol000013

>  <name>
ethinylestradiol

>  <reference>
Jurgens et al. (2002); Cormier et al. (2015)

>  <speciation_state_pH7.4>
neutral

>  <substance_type>
steroidal drug

>  <smiles>
C#C[C@]1(O)CC[C@H]2[C@@H]3CCc4cc(O)ccc4[C@H]3CC[C@@]21C

>  <inchi>
InChI=1S/C20H24O2/c1-3-20(22)11-9-18-17-6-4-13-12-14(21)5-7-15(13)16(17)8-10-19(18,20)2/h1,5,7,12,16-18,21-22H,4,6,8-11H2,2H3/t16-,17-,18+,19+,20+/m1/s1

>  <inchikey>
BFPYWIDHMRZLRN-SLHNCBLASA-N

$$$$

emcorina  05091710353D 1   1.00000     0.00000 
CORINA evaluation license 3.49 0066  11.04.2013
 13 12  0  0  0  0  0  0  0  0999 V2000
    2.6815   -0.3134   -0.0002 C   0  0  0  0  0  0  0  0  0  0  0  0
    1.3534    0.4461   -0.0001 C   0  0  0  0  0  0  0  0  0  0  0  0
    0.2536   -0.5020   -0.0000 O   0  0  0  0  0  0  0  0  0  0  0  0
   -0.9926    0.0075    0.0001 C   0  0  0  0  0  0  0  0  0  0  0  0
   -2.0581   -0.8179    0.0002 N   0  0  0  0  0  0  0  0  0  0  0  0
   -1.1568    1.2115    0.0001 O   0  0  0  0  0  0  0  0  0  0  0  0
    3.5071    0.3983   -0.0002 H   0  0  0  0  0  0  0  0  0  0  0  0
    2.7419   -0.9398    0.8898 H   0  0  0  0  0  0  0  0  0  0  0  0
    2.7418   -0.9398   -0.8902 H   0  0  0  0  0  0  0  0  0  0  0  0
    1.2931    1.0726    0.8899 H   0  0  0  0  0  0  0  0  0  0  0  0
    1.2930    1.0725   -0.8901 H   0  0  0  0  0  0  0  0  0  0  0  0
   -1.9270   -1.7790    0.0002 H   0  0  0  0  0  0  0  0  0  0  0  0
   -2.9560   -0.4508    0.0002 H   0  0  0  0  0  0  0  0  0  0  0  0
  1  2  1  0  0  0  0
  1  7  1  0  0  0  0
  1  8  1  0  0  0  0
  1  9  1  0  0  0  0
  2  3  1  0  0  0  0
  2 10  1  0  0  0  0
  2 11  1  0  0  0  0
  3  4  1  0  0  0  0
  4  5  1  0  0  0  0
  4  6  2  0  0  0  0
  5 12  1  0  0  0  0
  5 13  1  0  0  0  0
M  END
>  <likely_enzyme_classes>
monooxygenase

>  <activity>
-9.8

>  <molID>
mol000014

>  <name>
ethyl carbamate

>  <reference>
Howard: Handbook of Environmental Degradation Rates

>  <speciation_state_pH7.4>
neutral

>  <substance_type>
chemical substance

>  <smiles>
CCOC(=N)O

>  <inchi>
InChI=1S/C3H7NO2/c1-2-6-3(4)5/h2H2,1H3,(H2,4,5)

>  <inchikey>
JOYRKODLDBILNP-UHFFFAOYSA-N

$$$$

emcorina  05091710353D 1   1.00000     0.00000 
CORINA evaluation license 3.49 0066  11.04.2013
 13 12  0  0  0  0  0  0  0  0999 V2000
    1.9864    0.0028   -0.0000 C   0  0  0  0  0  0  0  0  0  0  0  0
    0.7124   -0.8445    0.0001 C   0  0  0  0  0  0  0  0  0  0  0  0
   -0.4927    0.0604   -0.0000 C   0  0  0  0  0  0  0  0  0  0  0  0
   -1.8789   -0.5308    0.0000 C   0  0  0  0  0  0  0  0  0  0  0  0
   -0.3475    1.2593   -0.0001 O   0  0  0  0  0  0  0  0  0  0  0  0
    2.0044    0.6319    0.8899 H   0  0  0  0  0  0  0  0  0  0  0  0
    2.8580   -0.6518    0.0001 H   0  0  0  0  0  0  0  0  0  0  0  0
    2.0044    0.6317   -0.8900 H   0  0  0  0  0  0  0  0  0  0  0  0
    0.6944   -1.4736   -0.8899 H   0  0  0  0  0  0  0  0  0  0  0  0
    0.6944   -1.4735    0.8901 H   0  0  0  0  0  0  0  0  0  0  0  0
   -2.0115   -1.1459    0.8901 H   0  0  0  0  0  0  0  0  0  0  0  0
   -2.6162    0.2720   -0.0000 H   0  0  0  0  0  0  0  0  0  0  0  0
   -2.0115   -1.1460   -0.8899 H   0  0  0  0  0  0  0  0  0  0  0  0
  1  2  1  0  0  0  0
  1  6  1  0  0  0  0
  1  7  1  0  0  0  0
  1  8  1  0  0  0  0
  2  3  1  0  0  0  0
  2  9  1  0  0  0  0
  2 10  1  0  0  0  0
  3  4  1  0  0  0  0
  3  5  2  0  0  0  0
  4 11  1  0  0  0  0
  4 12  1  0  0  0  0
  4 13  1  0  0  0  0
M  END
>  <likely_enzyme_classes>
monooxygenase

>  <activity>
-9.5

>  <molID>
mol000016

>  <name>
methyl ethyl ketone

>  <reference>
Mackay handbook of physical-chemical properties; Capel and Larson (1995)

>  <speciation_state_pH7.4>
neutral

>  <substance_type>
chemical substance

>  <smiles>
CCC(C)=O

>  <inchi>
InChI=1S/C4H8O/c1-3-4(2)5/h3H2,1-2H3

>  <inchikey>
ZWEHNKRNPOVVGH-UHFFFAOYSA-N

$$$$

emcorina  05091710353D 1   1.00000     0.00000 
CORINA evaluation license 3.49 0066  11.04.2013
 19 18  0  0  0  0  0  0  0  0999 V2000
   -1.3372    1.2324   -0.6097 C   0  0  0  0  0  0  0  0  0  0  0  0
   -1.2118    0.0031    0.2926 C   0  0  0  0  0  0  0  0  0  0  0  0
   -2.4849   -0.8389    0.1871 C   0  0  0  0  0  0  0  0  0  0  0  0
   -0.0091   -0.8331   -0.1491 C   0  0  0  0  0  0  0  0  0  0  0  0
    1.2574   -0.0466    0.0705 C   0  0  0  0  0  0  0  0  0  0  0  0
    2.5911   -0.6507   -0.2866 C   0  0  0  0  0  0  0  0  0  0  0  0
    1.2037    1.0679    0.5325 O   0  0  0  0  0  0  0  0  0  0  0  0
   -1.4767    0.9124   -1.6423 H   0  0  0  0  0  0  0  0  0  0  0  0
   -2.1940    1.8282   -0.2951 H   0  0  0  0  0  0  0  0  0  0  0  0
   -0.4303    1.8323   -0.5346 H   0  0  0  0  0  0  0  0  0  0  0  0
   -1.0724    0.3231    1.3252 H   0  0  0  0  0  0  0  0  0  0  0  0
   -2.6243   -1.1589   -0.8455 H   0  0  0  0  0  0  0  0  0  0  0  0
   -2.3955   -1.7147    0.8299 H   0  0  0  0  0  0  0  0  0  0  0  0
   -3.3417   -0.2432    0.5017 H   0  0  0  0  0  0  0  0  0  0  0  0
    0.0283   -1.7526    0.4351 H   0  0  0  0  0  0  0  0  0  0  0  0
   -0.1058   -1.0784   -1.2067 H   0  0  0  0  0  0  0  0  0  0  0  0
    2.8352   -0.4071   -1.3206 H   0  0  0  0  0  0  0  0  0  0  0  0
    3.3603   -0.2487    0.3727 H   0  0  0  0  0  0  0  0  0  0  0  0
    2.5423   -1.7334   -0.1701 H   0  0  0  0  0  0  0  0  0  0  0  0
  1  2  1  0  0  0  0
  1  8  1  0  0  0  0
  1  9  1  0  0  0  0
  1 10  1  0  0  0  0
  2  3  1  0  0  0  0
  2  4  1  0  0  0  0
  2 11  1  0  0  0  0
  3 12  1  0  0  0  0
  3 13  1  0  0  0  0
  3 14  1  0  0  0  0
  4  5  1  0  0  0  0
  4 15  1  0  0  0  0
  4 16  1  0  0  0  0
  5  6  1  0  0  0  0
  5  7  2  0  0  0  0
  6 17  1  0  0  0  0
  6 18  1  0  0  0  0
  6 19  1  0  0  0  0
M  END
>  <likely_enzyme_classes>
monooxygenase

>  <activity>
-9.8

>  <molID>
mol000017

>  <name>
methyl isobutyl ketone

>  <reference>
Mackay handbook of physical-chemical properties

>  <speciation_state_pH7.4>
neutral

>  <substance_type>
chemical substance

>  <smiles>
CC(=O)CC(C)C

>  <inchi>
InChI=1S/C6H12O/c1-5(2)4-6(3)7/h5H,4H2,1-3H3

>  <inchikey>
NTIZESTWPVYFNL-UHFFFAOYSA-N

$$$$

emcorina  05091710353D 1   1.00000     0.00000 
CORINA evaluation license 3.49 0066  11.04.2013
 16 16  0  0  0  0  0  0  0  0999 V2000
    1.8330    1.4300    0.0107 C   0  0  0  0  0  0  0  0  0  0  0  0
    0.5162    0.6972    0.0068 C   0  0  0  0  0  0  0  0  0  0  0  0
   -0.6692    1.4060   -0.0113 C   0  0  0  0  0  0  0  0  0  0  0  0
   -1.8779    0.7342   -0.0149 C   0  0  0  0  0  0  0  0  0  0  0  0
   -1.9032   -0.6480   -0.0004 C   0  0  0  0  0  0  0  0  0  0  0  0
   -0.7202   -1.3616    0.0182 C   0  0  0  0  0  0  0  0  0  0  0  0
    0.4936   -0.6901    0.0156 C   0  0  0  0  0  0  0  0  0  0  0  0
    1.6585   -1.3897    0.0339 O   0  0  0  0  0  0  0  0  0  0  0  0
    2.1413    1.6176    1.0392 H   0  0  0  0  0  0  0  0  0  0  0  0
    2.5878    0.8236   -0.4900 H   0  0  0  0  0  0  0  0  0  0  0  0
    1.7224    2.3789   -0.5142 H   0  0  0  0  0  0  0  0  0  0  0  0
   -0.6521    2.4858   -0.0223 H   0  0  0  0  0  0  0  0  0  0  0  0
   -2.8037    1.2902   -0.0287 H   0  0  0  0  0  0  0  0  0  0  0  0
   -2.8484   -1.1704   -0.0032 H   0  0  0  0  0  0  0  0  0  0  0  0
   -0.7405   -2.4413    0.0300 H   0  0  0  0  0  0  0  0  0  0  0  0
    2.0013   -1.6058   -0.8441 H   0  0  0  0  0  0  0  0  0  0  0  0
  1  2  1  0  0  0  0
  1  9  1  0  0  0  0
  1 10  1  0  0  0  0
  1 11  1  0  0  0  0
  2  3  2  0  0  0  0
  2  7  1  0  0  0  0
  3  4  1  0  0  0  0
  3 12  1  0  0  0  0
  4  5  2  0  0  0  0
  4 13  1  0  0  0  0
  5  6  1  0  0  0  0
  5 14  1  0  0  0  0
  6  7  2  0  0  0  0
  6 15  1  0  0  0  0
  7  8  1  0  0  0  0
  8 16  1  0  0  0  0
M  END
>  <likely_enzyme_classes>
monooxygenase; methylhydroxylase 

>  <activity>
-9.6

>  <molID>
mol000019

>  <name>
o-Cresol

>  <reference>
Paris et al. 1983; quoted, Steen 1991; Mackay handbook of physical-chemical properties

>  <speciation_state_pH7.4>
neutral

>  <substance_type>
chemical substance

>  <smiles>
Cc1ccccc1O

>  <inchi>
InChI=1S/C7H8O/c1-6-4-2-3-5-7(6)8/h2-5,8H,1H3

>  <inchikey>
QWVGKYWNOKOFNN-UHFFFAOYSA-N

$$$$

emcorina  05091710353D 1   1.00000     0.00000 
CORINA evaluation license 3.49 0066  11.04.2013
 16 16  0  0  0  0  0  0  0  0999 V2000
    2.9120   -0.0000   -0.0146 C   0  0  0  0  0  0  0  0  0  0  0  0
    1.4050   -0.0000   -0.0025 C   0  0  0  0  0  0  0  0  0  0  0  0
    0.7149    1.1981    0.0016 C   0  0  0  0  0  0  0  0  0  0  0  0
   -0.6665    1.2008    0.0131 C   0  0  0  0  0  0  0  0  0  0  0  0
   -1.3613    0.0000    0.0201 C   0  0  0  0  0  0  0  0  0  0  0  0
   -2.7202    0.0000    0.0310 O   0  0  0  0  0  0  0  0  0  0  0  0
   -0.6665   -1.2008    0.0155 C   0  0  0  0  0  0  0  0  0  0  0  0
    0.7149   -1.1981   -0.0012 C   0  0  0  0  0  0  0  0  0  0  0  0
    3.2835    0.0012    1.0102 H   0  0  0  0  0  0  0  0  0  0  0  0
    3.2712   -0.8906   -0.5302 H   0  0  0  0  0  0  0  0  0  0  0  0
    3.2712    0.8893   -0.5323 H   0  0  0  0  0  0  0  0  0  0  0  0
    1.2563    2.1326   -0.0039 H   0  0  0  0  0  0  0  0  0  0  0  0
   -1.2051    2.1369    0.0170 H   0  0  0  0  0  0  0  0  0  0  0  0
   -3.1206   -0.0010   -0.8493 H   0  0  0  0  0  0  0  0  0  0  0  0
   -1.2051   -2.1369    0.0213 H   0  0  0  0  0  0  0  0  0  0  0  0
    1.2562   -2.1326   -0.0052 H   0  0  0  0  0  0  0  0  0  0  0  0
  1  2  1  0  0  0  0
  1  9  1  0  0  0  0
  1 10  1  0  0  0  0
  1 11  1  0  0  0  0
  2  3  2  0  0  0  0
  2  8  1  0  0  0  0
  3  4  1  0  0  0  0
  3 12  1  0  0  0  0
  4  5  2  0  0  0  0
  4 13  1  0  0  0  0
  5  6  1  0  0  0  0
  5  7  1  0  0  0  0
  6 14  1  0  0  0  0
  7  8  2  0  0  0  0
  7 15  1  0  0  0  0
  8 16  1  0  0  0  0
M  END
>  <likely_enzyme_classes>
monooxygenase; methylhydroxylase 

>  <activity>
-9

>  <molID>
mol000020

>  <name>
p-Cresol

>  <reference>
Smith et al. 1978; Mackay handbook of physical-chemical properties

>  <speciation_state_pH7.4>
neutral

>  <substance_type>
chemical substance

>  <smiles>
Cc1ccc(O)cc1

>  <inchi>
InChI=1S/C7H8O/c1-6-2-4-7(8)5-3-6/h2-5,8H,1H3

>  <inchikey>
IWDCLRJOBJJRNH-UHFFFAOYSA-N

$$$$

emcorina  05091710353D 1   1.00000     0.00000 
CORINA evaluation license 3.49 0066  11.04.2013
 13 13  0  0  0  0  0  0  0  0999 V2000
    2.2699   -0.0001   -0.0368 O   0  0  0  0  0  0  0  0  0  0  0  0
    0.9110   -0.0000   -0.0200 C   0  0  0  0  0  0  0  0  0  0  0  0
    0.2162    1.2008   -0.0126 C   0  0  0  0  0  0  0  0  0  0  0  0
   -1.1651    1.1981    0.0045 C   0  0  0  0  0  0  0  0  0  0  0  0
   -1.8553    0.0000    0.0142 C   0  0  0  0  0  0  0  0  0  0  0  0
   -1.1652   -1.1981    0.0073 C   0  0  0  0  0  0  0  0  0  0  0  0
    0.2161   -1.2008   -0.0160 C   0  0  0  0  0  0  0  0  0  0  0  0
    2.6740    0.0008    0.8417 H   0  0  0  0  0  0  0  0  0  0  0  0
    0.7548    2.1368   -0.0199 H   0  0  0  0  0  0  0  0  0  0  0  0
   -1.7065    2.1326    0.0106 H   0  0  0  0  0  0  0  0  0  0  0  0
   -2.9352    0.0000    0.0276 H   0  0  0  0  0  0  0  0  0  0  0  0
   -1.7065   -2.1326    0.0157 H   0  0  0  0  0  0  0  0  0  0  0  0
    0.7547   -2.1369   -0.0214 H   0  0  0  0  0  0  0  0  0  0  0  0
  1  2  1  0  0  0  0
  1  8  1  0  0  0  0
  2  3  2  0  0  0  0
  2  7  1  0  0  0  0
  3  4  1  0  0  0  0
  3  9  1  0  0  0  0
  4  5  2  0  0  0  0
  4 10  1  0  0  0  0
  5  6  1  0  0  0  0
  5 11  1  0  0  0  0
  6  7  2  0  0  0  0
  6 12  1  0  0  0  0
  7 13  1  0  0  0  0
M  END
>  <likely_enzyme_classes>
monooxygenase

>  <activity>
-9.2

>  <molID>
mol000022

>  <name>
phenol

>  <reference>
Paris and Rogers (1986); Book chapter: Biodegradation analysis in water systems (14.3.2), from Environmental Xenobiotics by Richardson M.; Mackay handbook of physical-chemical properties; Capel and Larson (1995)

>  <speciation_state_pH7.4>
neutral

>  <substance_type>
chemical substance

>  <smiles>
Oc1ccccc1

>  <inchi>
InChI=1S/C6H6O/c7-6-4-2-1-3-5-6/h1-5,7H

>  <inchikey>
ISWSIDIOOBJBQZ-UHFFFAOYSA-N

$$$$

emcorina  05091710353D 1   1.00000     0.00000 
CORINA evaluation license 3.49 0066  11.04.2013
 15 14  0  0  0  0  0  0  0  0999 V2000
    0.3777    1.2493    0.7929 C   0  0  0  0  0  0  0  0  0  0  0  0
   -0.0144   -0.0000    0.0014 C   0  0  0  0  0  0  0  0  0  0  0  0
    0.3779   -1.2492    0.7929 C   0  0  0  0  0  0  0  0  0  0  0  0
   -1.5260   -0.0001   -0.2354 C   0  0  0  0  0  0  0  0  0  0  0  0
    0.6647    0.0001   -1.2559 O   0  0  0  0  0  0  0  0  0  0  0  0
    1.4546    1.2494    0.9616 H   0  0  0  0  0  0  0  0  0  0  0  0
    0.0982    2.1392    0.2290 H   0  0  0  0  0  0  0  0  0  0  0  0
   -0.1403    1.2492    1.7520 H   0  0  0  0  0  0  0  0  0  0  0  0
   -0.1401   -1.2493    1.7520 H   0  0  0  0  0  0  0  0  0  0  0  0
    0.0986   -2.1392    0.2290 H   0  0  0  0  0  0  0  0  0  0  0  0
    1.4548   -1.2491    0.9616 H   0  0  0  0  0  0  0  0  0  0  0  0
   -1.8055    0.8898   -0.7993 H   0  0  0  0  0  0  0  0  0  0  0  0
   -1.8053   -0.8901   -0.7993 H   0  0  0  0  0  0  0  0  0  0  0  0
   -2.0440   -0.0002    0.7236 H   0  0  0  0  0  0  0  0  0  0  0  0
    1.6289    0.0001   -1.1821 H   0  0  0  0  0  0  0  0  0  0  0  0
  1  2  1  0  0  0  0
  1  6  1  0  0  0  0
  1  7  1  0  0  0  0
  1  8  1  0  0  0  0
  2  3  1  0  0  0  0
  2  4  1  0  0  0  0
  2  5  1  0  0  0  0
  3  9  1  0  0  0  0
  3 10  1  0  0  0  0
  3 11  1  0  0  0  0
  4 12  1  0  0  0  0
  4 13  1  0  0  0  0
  4 14  1  0  0  0  0
  5 15  1  0  0  0  0
M  END
>  <likely_enzyme_classes>
monooxygenase

>  <activity>
-11

>  <molID>
mol000023

>  <name>
tert-butanol

>  <reference>
Howard: Handbook of Environmental Degradation Rates; Capel and Larson (1995); Mackay handbook of physical-chemical properties

>  <speciation_state_pH7.4>
neutral

>  <substance_type>
chemical substance

>  <smiles>
CC(C)(C)O

>  <inchi>
InChI=1S/C4H10O/c1-4(2,3)5/h5H,1-3H3

>  <inchikey>
DKGAVHZHDRPRBM-UHFFFAOYSA-N

$$$$

emcorina  05091710353D 1   1.00000     0.00000 
CORINA evaluation license 3.49 0066  11.04.2013
 33 33  0  0  0  0  0  0  0  0999 V2000
   -4.5499    0.4376    1.1803 C   0  0  0  0  0  0  0  0  0  0  0  0
   -4.0079   -0.1045   -0.1438 C   0  0  0  0  0  0  0  0  0  0  0  0
   -4.3297    0.8815   -1.2686 C   0  0  0  0  0  0  0  0  0  0  0  0
   -2.5147   -0.2797   -0.0414 C   0  0  0  0  0  0  0  0  0  0  0  0
   -1.9531   -1.5310   -0.2178 C   0  0  0  0  0  0  0  0  0  0  0  0
   -0.5848   -1.6948   -0.1249 C   0  0  0  0  0  0  0  0  0  0  0  0
    0.2271   -0.6012    0.1458 C   0  0  0  0  0  0  0  0  0  0  0  0
    1.6139   -0.7638    0.2401 N   0  0  0  0  0  0  0  0  0  0  0  0
    2.4309    0.2893    0.0400 C   0  0  0  0  0  0  0  0  0  0  0  0
    1.9671    1.4092   -0.0550 O   0  0  0  0  0  0  0  0  0  0  0  0
    3.7621    0.1009   -0.0547 N   0  0  0  0  0  0  0  0  0  0  0  0
    4.6632    1.2547   -0.1074 C   0  0  0  0  0  0  0  0  0  0  0  0
    4.3079   -1.2577   -0.1051 C   0  0  0  0  0  0  0  0  0  0  0  0
   -0.3400    0.6540    0.3224 C   0  0  0  0  0  0  0  0  0  0  0  0
   -1.7084    0.8121    0.2232 C   0  0  0  0  0  0  0  0  0  0  0  0
   -4.0852    1.3996    1.3965 H   0  0  0  0  0  0  0  0  0  0  0  0
   -5.6299    0.5643    1.1062 H   0  0  0  0  0  0  0  0  0  0  0  0
   -4.3206   -0.2649    1.9816 H   0  0  0  0  0  0  0  0  0  0  0  0
   -4.4726   -1.0665   -0.3600 H   0  0  0  0  0  0  0  0  0  0  0  0
   -3.8650    1.8435   -1.0524 H   0  0  0  0  0  0  0  0  0  0  0  0
   -3.9437    0.4953   -2.2119 H   0  0  0  0  0  0  0  0  0  0  0  0
   -5.4098    1.0083   -1.3427 H   0  0  0  0  0  0  0  0  0  0  0  0
   -2.5851   -2.3812   -0.4280 H   0  0  0  0  0  0  0  0  0  0  0  0
   -0.1469   -2.6724   -0.2624 H   0  0  0  0  0  0  0  0  0  0  0  0
    1.9870   -1.6343    0.4494 H   0  0  0  0  0  0  0  0  0  0  0  0
    4.9584    1.5317    0.9046 H   0  0  0  0  0  0  0  0  0  0  0  0
    5.5498    0.9972   -0.6868 H   0  0  0  0  0  0  0  0  0  0  0  0
    4.1519    2.0938   -0.5793 H   0  0  0  0  0  0  0  0  0  0  0  0
    3.5013   -1.9785    0.0294 H   0  0  0  0  0  0  0  0  0  0  0  0
    4.7848   -1.4221   -1.0713 H   0  0  0  0  0  0  0  0  0  0  0  0
    5.0436   -1.3833    0.6893 H   0  0  0  0  0  0  0  0  0  0  0  0
    0.2888    1.5064    0.5332 H   0  0  0  0  0  0  0  0  0  0  0  0
   -2.1500    1.7882    0.3600 H   0  0  0  0  0  0  0  0  0  0  0  0
  1  2  1  0  0  0  0
  1 16  1  0  0  0  0
  1 17  1  0  0  0  0
  1 18  1  0  0  0  0
  2  3  1  0  0  0  0
  2  4  1  0  0  0  0
  2 19  1  0  0  0  0
  3 20  1  0  0  0  0
  3 21  1  0  0  0  0
  3 22  1  0  0  0  0
  4  5  2  0  0  0  0
  4 15  1  0  0  0  0
  5  6  1  0  0  0  0
  5 23  1  0  0  0  0
  6  7  2  0  0  0  0
  6 24  1  0  0  0  0
  7  8  1  0  0  0  0
  7 14  1  0  0  0  0
  8  9  1  0  0  0  0
  8 25  1  0  0  0  0
  9 10  2  0  0  0  0
  9 11  1  0  0  0  0
 11 12  1  0  0  0  0
 11 13  1  0  0  0  0
 12 26  1  0  0  0  0
 12 27  1  0  0  0  0
 12 28  1  0  0  0  0
 13 29  1  0  0  0  0
 13 30  1  0  0  0  0
 13 31  1  0  0  0  0
 14 15  2  0  0  0  0
 14 32  1  0  0  0  0
 15 33  1  0  0  0  0
M  END
>  <likely_enzyme_classes>
demethylase; monooxygenase; amidohydrolase

>  <activity>
-10.8

>  <molID>
mol000025

>  <name>
isoproturon

>  <reference>
Merlin et al. (2002)

>  <speciation_state_pH7.4>
neutral

>  <substance_type>
herbicide

>  <smiles>
CC(C)c1ccc(NC(=O)N(C)C)cc1

>  <inchi>
InChI=1S/C12H18N2O/c1-9(2)10-5-7-11(8-6-10)13-12(15)14(3)4/h5-9H,1-4H3,(H,13,15)

>  <inchikey>
PUIYMUZLKQOUOZ-UHFFFAOYSA-N

$$$$

emcorina  05091710353D 1   1.00000     0.00000 
CORINA evaluation license 3.49 0066  11.04.2013
 10  9  0  0  0  0  0  0  0  0999 V2000
    1.3051    0.6772   -0.0000 C   0  0  0  0  0  0  0  0  0  0  0  0
   -0.0000   -0.0763    0.0000 C   0  0  0  0  0  0  0  0  0  0  0  0
   -1.3051    0.6772    0.0000 C   0  0  0  0  0  0  0  0  0  0  0  0
   -0.0000   -1.2839    0.0000 O   0  0  0  0  0  0  0  0  0  0  0  0
    1.1059    1.7488   -0.0000 H   0  0  0  0  0  0  0  0  0  0  0  0
    1.8767    0.4138    0.8900 H   0  0  0  0  0  0  0  0  0  0  0  0
    1.8767    0.4138   -0.8900 H   0  0  0  0  0  0  0  0  0  0  0  0
   -1.1059    1.7488    0.0000 H   0  0  0  0  0  0  0  0  0  0  0  0
   -1.8767    0.4138   -0.8900 H   0  0  0  0  0  0  0  0  0  0  0  0
   -1.8767    0.4138    0.8900 H   0  0  0  0  0  0  0  0  0  0  0  0
  1  2  1  0  0  0  0
  1  5  1  0  0  0  0
  1  6  1  0  0  0  0
  1  7  1  0  0  0  0
  2  3  1  0  0  0  0
  2  4  2  0  0  0  0
  3  8  1  0  0  0  0
  3  9  1  0  0  0  0
  3 10  1  0  0  0  0
M  END
>  <likely_enzyme_classes>
carboxylase; monooxygenase

>  <activity>
-9.8

>  <molID>
mol000026

>  <name>
acetone

>  <reference>
Mackay handbook of physical-chemical properties

>  <speciation_state_pH7.4>
neutral

>  <substance_type>
chemical substance

>  <smiles>
CC(C)=O

>  <inchi>
InChI=1S/C3H6O/c1-3(2)4/h1-2H3

>  <inchikey>
CSCPPACGZOOCGX-UHFFFAOYSA-N

$$$$

emcorina  05091710353D 1   1.00000     0.00000 
CORINA evaluation license 3.49 0066  11.04.2013
 42 45  0  0  0  0  0  0  0  0999 V2000
    0.7141   -1.9460    2.7238 C   0  0  0  0  0  0  0  0  0  0  0  0
   -0.2585   -2.5704    1.8834 O   0  0  0  0  0  0  0  0  0  0  0  0
   -0.5083   -1.8695    0.6634 C   0  0  0  0  0  0  0  0  0  0  0  0
   -1.5596   -2.5822   -0.2010 C   0  0  0  0  0  0  0  0  0  0  0  0
   -1.5612   -2.3468   -1.6504 N   0  0  0  0  0  0  0  0  0  0  0  0
   -0.7300   -3.4590   -1.1690 C   0  0  0  0  0  0  0  0  0  0  0  0
    0.7466   -3.1506   -0.8172 C   0  0  0  0  0  0  0  0  0  0  0  0
    0.6936   -1.8114   -0.2022 N   0  0  0  0  0  0  0  0  0  0  0  0
    1.2415   -0.5606   -0.1316 C   0  0  0  0  0  0  0  0  0  0  0  0
    0.3975    0.3331    0.4395 C   0  0  0  0  0  0  0  0  0  0  0  0
   -0.8663   -0.4010    0.9118 C   0  0  0  0  0  0  0  0  0  0  0  0
   -2.0733    0.0026    0.0625 C   0  0  0  0  0  0  0  0  0  0  0  0
   -2.3837    1.4016    0.2965 O   0  0  0  0  0  0  0  0  0  0  0  0
   -3.4274    1.9174   -0.3797 C   0  0  0  0  0  0  0  0  0  0  0  0
   -3.7689    3.2099   -0.2084 N   0  0  0  0  0  0  0  0  0  0  0  0
   -4.0616    1.2177   -1.1444 O   0  0  0  0  0  0  0  0  0  0  0  0
    0.7553    1.7009    0.5422 C   0  0  0  0  0  0  0  0  0  0  0  0
   -0.0280    2.4982    1.0200 O   0  0  0  0  0  0  0  0  0  0  0  0
    2.0871    2.1629    0.0671 C   0  0  0  0  0  0  0  0  0  0  0  0
    2.4378    3.4874    0.1731 N   0  0  0  0  0  0  0  0  0  0  0  0
    2.9526    1.2690   -0.4705 C   0  0  0  0  0  0  0  0  0  0  0  0
    4.3076    1.7273   -0.9447 C   0  0  0  0  0  0  0  0  0  0  0  0
    2.5879   -0.0921   -0.5878 C   0  0  0  0  0  0  0  0  0  0  0  0
    3.3741   -0.8881   -1.0630 O   0  0  0  0  0  0  0  0  0  0  0  0
    0.3743   -0.9454    2.9914 H   0  0  0  0  0  0  0  0  0  0  0  0
    0.8466   -2.5389    3.6288 H   0  0  0  0  0  0  0  0  0  0  0  0
    1.6632   -1.8773    2.1922 H   0  0  0  0  0  0  0  0  0  0  0  0
   -2.4671   -2.9336    0.2901 H   0  0  0  0  0  0  0  0  0  0  0  0
   -2.4127   -2.6875   -2.0711 H   0  0  0  0  0  0  0  0  0  0  0  0
   -0.9907   -4.4856   -1.4266 H   0  0  0  0  0  0  0  0  0  0  0  0
    1.1312   -3.8825   -0.1069 H   0  0  0  0  0  0  0  0  0  0  0  0
    1.3588   -3.1332   -1.7188 H   0  0  0  0  0  0  0  0  0  0  0  0
   -1.0557   -0.2001    1.9662 H   0  0  0  0  0  0  0  0  0  0  0  0
   -1.8417   -0.1468   -0.9921 H   0  0  0  0  0  0  0  0  0  0  0  0
   -2.9316   -0.6108    0.3364 H   0  0  0  0  0  0  0  0  0  0  0  0
   -3.2626    3.7685    0.4021 H   0  0  0  0  0  0  0  0  0  0  0  0
   -4.5208    3.5816   -0.6955 H   0  0  0  0  0  0  0  0  0  0  0  0
    1.7902    4.1368    0.4889 H   0  0  0  0  0  0  0  0  0  0  0  0
    3.3330    3.7728   -0.0680 H   0  0  0  0  0  0  0  0  0  0  0  0
    4.4450    2.7784   -0.6910 H   0  0  0  0  0  0  0  0  0  0  0  0
    5.0822    1.1324   -0.4607 H   0  0  0  0  0  0  0  0  0  0  0  0
    4.3757    1.6024   -2.0254 H   0  0  0  0  0  0  0  0  0  0  0  0
  1  2  1  0  0  0  0
  1 25  1  0  0  0  0
  1 26  1  0  0  0  0
  1 27  1  0  0  0  0
  2  3  1  0  0  0  0
  3  4  1  0  0  0  0
  3  8  1  0  0  0  0
  3 11  1  0  0  0  0
  4  5  1  0  0  0  0
  4  6  1  0  0  0  0
  4 28  1  0  0  0  0
  5  6  1  0  0  0  0
  5 29  1  0  0  0  0
  6  7  1  0  0  0  0
  6 30  1  0  0  0  0
  7  8  1  0  0  0  0
  7 31  1  0  0  0  0
  7 32  1  0  0  0  0
  8  9  1  0  0  0  0
  9 10  2  0  0  0  0
  9 23  1  0  0  0  0
 10 11  1  0  0  0  0
 10 17  1  0  0  0  0
 11 12  1  0  0  0  0
 11 33  1  0  0  0  0
 12 13  1  0  0  0  0
 12 34  1  0  0  0  0
 12 35  1  0  0  0  0
 13 14  1  0  0  0  0
 14 15  1  0  0  0  0
 14 16  2  0  0  0  0
 15 36  1  0  0  0  0
 15 37  1  0  0  0  0
 17 18  2  0  0  0  0
 17 19  1  0  0  0  0
 19 20  1  0  0  0  0
 19 21  2  0  0  0  0
 20 38  1  0  0  0  0
 20 39  1  0  0  0  0
 21 22  1  0  0  0  0
 21 23  1  0  0  0  0
 22 40  1  0  0  0  0
 22 41  1  0  0  0  0
 22 42  1  0  0  0  0
 23 24  2  0  0  0  0
M  END
>  <likely_enzyme_classes>
hydrolase; amine dehydrogenase; monooxygenase

>  <activity>
-10.5

>  <molID>
mol000027

>  <name>
mitomycin C

>  <reference>
Howard: Handbook of Environmental Degradation Rates

>  <speciation_state_pH7.4>
neutral

>  <substance_type>
antineoplastic drug

>  <smiles>
CO[C@]12[C@H]3N[C@H]3CN1C1=C(C(=O)C(N)=C(C)C1=O)[C@H]2COC(=N)O

>  <inchi>
InChI=1S/C15H18N4O5/c1-5-9(16)12(21)8-6(4-24-14(17)22)15(23-2)13-7(18-13)3-19(15)10(8)11(5)20/h6-7,13,18H,3-4,16H2,1-2H3,(H2,17,22)/t6-,7+,13+,15-/m1/s1

>  <inchikey>
NWIBSHFKIJFRCO-WUDYKRTCSA-N

$$$$

emcorina  05091710353D 1   1.00000     0.00000 
CORINA evaluation license 3.49 0066  11.04.2013
 18 18  0  0  0  0  0  0  0  0999 V2000
    1.8161    1.4448    0.0013 C   0  0  0  0  0  0  0  0  0  0  0  0
    0.5109    0.6913    0.0012 C   0  0  0  0  0  0  0  0  0  0  0  0
   -0.6860    1.3824   -0.0010 C   0  0  0  0  0  0  0  0  0  0  0  0
   -1.8833    0.6911   -0.0010 C   0  0  0  0  0  0  0  0  0  0  0  0
   -1.8833   -0.6911    0.0007 C   0  0  0  0  0  0  0  0  0  0  0  0
   -0.6860   -1.3824    0.0020 C   0  0  0  0  0  0  0  0  0  0  0  0
    0.5109   -0.6913   -0.0024 C   0  0  0  0  0  0  0  0  0  0  0  0
    1.8160   -1.4448   -0.0010 C   0  0  0  0  0  0  0  0  0  0  0  0
    2.1297    1.6280    1.0290 H   0  0  0  0  0  0  0  0  0  0  0  0
    2.5762    0.8549   -0.5109 H   0  0  0  0  0  0  0  0  0  0  0  0
    1.6862    2.3964   -0.5141 H   0  0  0  0  0  0  0  0  0  0  0  0
   -0.6860    2.4624   -0.0023 H   0  0  0  0  0  0  0  0  0  0  0  0
   -2.8186    1.2311   -0.0020 H   0  0  0  0  0  0  0  0  0  0  0  0
   -2.8186   -1.2311    0.0014 H   0  0  0  0  0  0  0  0  0  0  0  0
   -0.6860   -2.4624    0.0036 H   0  0  0  0  0  0  0  0  0  0  0  0
    2.1294   -1.6306   -1.0284 H   0  0  0  0  0  0  0  0  0  0  0  0
    2.5764   -0.8536    0.5094 H   0  0  0  0  0  0  0  0  0  0  0  0
    1.6864   -2.3951    0.5168 H   0  0  0  0  0  0  0  0  0  0  0  0
  1  2  1  0  0  0  0
  1  9  1  0  0  0  0
  1 10  1  0  0  0  0
  1 11  1  0  0  0  0
  2  3  2  0  0  0  0
  2  7  1  0  0  0  0
  3  4  1  0  0  0  0
  3 12  1  0  0  0  0
  4  5  2  0  0  0  0
  4 13  1  0  0  0  0
  5  6  1  0  0  0  0
  5 14  1  0  0  0  0
  6  7  2  0  0  0  0
  6 15  1  0  0  0  0
  7  8  1  0  0  0  0
  8 16  1  0  0  0  0
  8 17  1  0  0  0  0
  8 18  1  0  0  0  0
M  END
>  <likely_enzyme_classes>
dioxygenase; monooxygenase

>  <activity>
-10.1

>  <molID>
mol000028

>  <name>
1,2-xylene

>  <reference>
Capel and Larson (1995)

>  <speciation_state_pH7.4>
neutral

>  <substance_type>
chemical substance

>  <smiles>
Cc1ccccc1C

>  <inchi>
InChI=1S/C8H10/c1-7-5-3-4-6-8(7)2/h3-6H,1-2H3

>  <inchikey>
CTQNGGLPUBDAKN-UHFFFAOYSA-N

$$$$

emcorina  05091710353D 1   1.00000     0.00000 
CORINA evaluation license 3.49 0066  11.04.2013
 17 17  0  0  0  0  0  0  0  0999 V2000
    2.4844    1.1664   -0.0011 C   0  0  0  0  0  0  0  0  0  0  0  0
    1.6746   -0.1046   -0.0004 C   0  0  0  0  0  0  0  0  0  0  0  0
    2.2345   -1.1801    0.0004 O   0  0  0  0  0  0  0  0  0  0  0  0
    0.2044   -0.0403   -0.0007 C   0  0  0  0  0  0  0  0  0  0  0  0
   -0.5506   -1.2176   -0.0000 C   0  0  0  0  0  0  0  0  0  0  0  0
   -1.9278   -1.1491    0.0002 C   0  0  0  0  0  0  0  0  0  0  0  0
   -2.5631    0.0805   -0.0007 C   0  0  0  0  0  0  0  0  0  0  0  0
   -1.8230    1.2501   -0.0018 C   0  0  0  0  0  0  0  0  0  0  0  0
   -0.4451    1.1982    0.0043 C   0  0  0  0  0  0  0  0  0  0  0  0
    3.5463    0.9206   -0.0008 H   0  0  0  0  0  0  0  0  0  0  0  0
    2.2464    1.7483   -0.8915 H   0  0  0  0  0  0  0  0  0  0  0  0
    2.2461    1.7495    0.8884 H   0  0  0  0  0  0  0  0  0  0  0  0
   -0.0563   -2.1778   -0.0000 H   0  0  0  0  0  0  0  0  0  0  0  0
   -2.5122   -2.0573    0.0007 H   0  0  0  0  0  0  0  0  0  0  0  0
   -3.6420    0.1277   -0.0009 H   0  0  0  0  0  0  0  0  0  0  0  0
   -2.3260    2.2058   -0.0029 H   0  0  0  0  0  0  0  0  0  0  0  0
    0.1311    2.1117    0.0033 H   0  0  0  0  0  0  0  0  0  0  0  0
  1  2  1  0  0  0  0
  1 10  1  0  0  0  0
  1 11  1  0  0  0  0
  1 12  1  0  0  0  0
  2  3  2  0  0  0  0
  2  4  1  0  0  0  0
  4  5  2  0  0  0  0
  4  9  1  0  0  0  0
  5  6  1  0  0  0  0
  5 13  1  0  0  0  0
  6  7  2  0  0  0  0
  6 14  1  0  0  0  0
  7  8  1  0  0  0  0
  7 15  1  0  0  0  0
  8  9  2  0  0  0  0
  8 16  1  0  0  0  0
  9 17  1  0  0  0  0
M  END
>  <likely_enzyme_classes>
dioxygenase; monooxygenase

>  <activity>
-10.1

>  <molID>
mol000029

>  <name>
acetophenone

>  <reference>
Mackay handbook of physical-chemical properties

>  <speciation_state_pH7.4>
neutral

>  <substance_type>
chemical substance

>  <smiles>
CC(=O)c1ccccc1

>  <inchi>
InChI=1S/C8H8O/c1-7(9)8-5-3-2-4-6-8/h2-6H,1H3

>  <inchikey>
KWOLFJPFCHCOCG-UHFFFAOYSA-N

$$$$

emcorina  05091710353D 1   1.00000     0.00000 
CORINA evaluation license 3.49 0066  11.04.2013
 16 16  0  0  0  0  0  0  0  0999 V2000
    2.8580    0.3990   -0.0010 C   0  0  0  0  0  0  0  0  0  0  0  0
    1.9678   -0.5832   -0.0004 C   0  0  0  0  0  0  0  0  0  0  0  0
    0.5230   -0.2711   -0.0004 C   0  0  0  0  0  0  0  0  0  0  0  0
   -0.4166   -1.3027    0.0003 C   0  0  0  0  0  0  0  0  0  0  0  0
   -1.7638   -1.0047    0.0003 C   0  0  0  0  0  0  0  0  0  0  0  0
   -2.1837    0.3135   -0.0009 C   0  0  0  0  0  0  0  0  0  0  0  0
   -1.2572    1.3408   -0.0021 C   0  0  0  0  0  0  0  0  0  0  0  0
    0.0929    1.0563    0.0047 C   0  0  0  0  0  0  0  0  0  0  0  0
    3.9137    0.1710   -0.0010 H   0  0  0  0  0  0  0  0  0  0  0  0
    2.5277    1.4273   -0.0060 H   0  0  0  0  0  0  0  0  0  0  0  0
    2.2981   -1.6114    0.0002 H   0  0  0  0  0  0  0  0  0  0  0  0
   -0.0901   -2.3322    0.0005 H   0  0  0  0  0  0  0  0  0  0  0  0
   -2.4921   -1.8022    0.0008 H   0  0  0  0  0  0  0  0  0  0  0  0
   -3.2394    0.5415   -0.0013 H   0  0  0  0  0  0  0  0  0  0  0  0
   -1.5914    2.3678   -0.0033 H   0  0  0  0  0  0  0  0  0  0  0  0
    0.8152    1.8592    0.0042 H   0  0  0  0  0  0  0  0  0  0  0  0
  1  2  2  0  0  0  0
  1  9  1  0  0  0  0
  1 10  1  0  0  0  0
  2  3  1  0  0  0  0
  2 11  1  0  0  0  0
  3  4  2  0  0  0  0
  3  8  1  0  0  0  0
  4  5  1  0  0  0  0
  4 12  1  0  0  0  0
  5  6  2  0  0  0  0
  5 13  1  0  0  0  0
  6  7  1  0  0  0  0
  6 14  1  0  0  0  0
  7  8  2  0  0  0  0
  7 15  1  0  0  0  0
  8 16  1  0  0  0  0
M  END
>  <likely_enzyme_classes>
dioxygenase; alkene monooxygenase

>  <activity>
-10.4

>  <molID>
mol000030

>  <name>
styrene

>  <reference>
Capel and Larson (1995)

>  <speciation_state_pH7.4>
neutral

>  <substance_type>
chemical substance

>  <smiles>
C=Cc1ccccc1

>  <inchi>
InChI=1S/C8H8/c1-2-8-6-4-3-5-7-8/h2-7H,1H2

>  <inchikey>
PPBRXRYQALVLMV-UHFFFAOYSA-N

$$$$

emcorina  05091710353D 1   1.00000     0.00000 
CORINA evaluation license 3.49 0066  11.04.2013
 14 14  0  0  0  0  0  0  0  0999 V2000
    2.4075   -0.0016    0.0011 C   0  0  0  0  0  0  0  0  0  0  0  0
    0.9005   -0.0002    0.0009 C   0  0  0  0  0  0  0  0  0  0  0  0
    0.2188    1.2018   -0.0004 C   0  0  0  0  0  0  0  0  0  0  0  0
   -1.1679    1.1922   -0.0006 C   0  0  0  0  0  0  0  0  0  0  0  0
   -1.8192   -0.0316    0.0006 C   0  0  0  0  0  0  0  0  0  0  0  0
   -1.0701   -1.1933    0.0019 C   0  0  0  0  0  0  0  0  0  0  0  0
    0.2476   -1.1460   -0.0034 N   0  0  0  0  0  0  0  0  0  0  0  0
    2.7707   -0.0009    1.0288 H   0  0  0  0  0  0  0  0  0  0  0  0
    2.7700   -0.8925   -0.5118 H   0  0  0  0  0  0  0  0  0  0  0  0
    2.7718    0.8874   -0.5137 H   0  0  0  0  0  0  0  0  0  0  0  0
    0.7591    2.1369   -0.0010 H   0  0  0  0  0  0  0  0  0  0  0  0
   -1.7271    2.1161   -0.0013 H   0  0  0  0  0  0  0  0  0  0  0  0
   -2.8982   -0.0768    0.0009 H   0  0  0  0  0  0  0  0  0  0  0  0
   -1.5699   -2.1506    0.0032 H   0  0  0  0  0  0  0  0  0  0  0  0
  1  2  1  0  0  0  0
  1  8  1  0  0  0  0
  1  9  1  0  0  0  0
  1 10  1  0  0  0  0
  2  3  2  0  0  0  0
  2  7  1  0  0  0  0
  3  4  1  0  0  0  0
  3 11  1  0  0  0  0
  4  5  2  0  0  0  0
  4 12  1  0  0  0  0
  5  6  1  0  0  0  0
  5 13  1  0  0  0  0
  6  7  2  0  0  0  0
  6 14  1  0  0  0  0
M  END
>  <likely_enzyme_classes>
dioxygenase; monooxygenase

>  <activity>
-9.8

>  <molID>
mol000032

>  <name>
2-methylpyridin

>  <reference>
Nedelcheva et al. 2012, poster; Pubchem

>  <speciation_state_pH7.4>
neutral

>  <substance_type>
chemical substance

>  <smiles>
Cc1ccccn1

>  <inchi>
InChI=1S/C6H7N/c1-6-4-2-3-5-7-6/h2-5H,1H3

>  <inchikey>
BSKHPKMHTQYZBB-UHFFFAOYSA-N

$$$$

emcorina  05091710353D 1   1.00000     0.00000 
CORINA evaluation license 3.49 0066  11.04.2013
  9  8  0  0  0  0  0  0  0  0999 V2000
    1.5858   -0.6621    0.0000 O   0  0  0  0  0  0  0  0  0  0  0  0
    0.4286    0.0292   -0.0000 C   0  0  0  0  0  0  0  0  0  0  0  0
    0.4468    1.2445   -0.0000 O   0  0  0  0  0  0  0  0  0  0  0  0
   -0.8548   -0.6864    0.0000 C   0  0  0  0  0  0  0  0  0  0  0  0
   -1.9973   -0.0038    0.0000 C   0  0  0  0  0  0  0  0  0  0  0  0
    2.4046   -0.1476    0.0000 H   0  0  0  0  0  0  0  0  0  0  0  0
   -0.8710   -1.7663    0.0000 H   0  0  0  0  0  0  0  0  0  0  0  0
   -2.9406   -0.5298    0.0000 H   0  0  0  0  0  0  0  0  0  0  0  0
   -1.9812    1.0760   -0.0000 H   0  0  0  0  0  0  0  0  0  0  0  0
  1  2  1  0  0  0  0
  1  6  1  0  0  0  0
  2  3  2  0  0  0  0
  2  4  1  0  0  0  0
  4  5  2  0  0  0  0
  4  7  1  0  0  0  0
  5  8  1  0  0  0  0
  5  9  1  0  0  0  0
M  END
>  <likely_enzyme_classes>
alkene monooxygenase; hydrolase

>  <activity>
-9.6

>  <molID>
mol000034

>  <name>
acrylic acid

>  <reference>
Mackay handbook of physical-chemical properties; Howard: Handbook of Environmental Degradation Rates; Capel and Larson (1995)

>  <speciation_state_pH7.4>
anionic

>  <substance_type>
chemical substance

>  <smiles>
C=CC(=O)O

>  <inchi>
InChI=1S/C3H4O2/c1-2-3(4)5/h2H,1H2,(H,4,5)

>  <inchikey>
NIXOWILDQLNWCW-UHFFFAOYSA-N

$$$$

emcorina  05091710353D 1   1.00000     0.00000 
CORINA evaluation license 3.49 0066  11.04.2013
 40 40  0  0  0  0  0  0  0  0999 V2000
   -4.3335    2.9450   -0.0010 C   0  0  0  0  0  0  0  0  0  0  0  0
   -4.0840    1.4588   -0.0009 C   0  0  0  0  0  0  0  0  0  0  0  0
   -2.7898    0.9764   -0.0011 C   0  0  0  0  0  0  0  0  0  0  0  0
   -2.5607   -0.3921   -0.0010 C   0  0  0  0  0  0  0  0  0  0  0  0
   -1.2882   -0.8693   -0.0007 O   0  0  0  0  0  0  0  0  0  0  0  0
   -0.2338    0.0952   -0.0006 C   0  0  0  0  0  0  0  0  0  0  0  0
    1.1161   -0.6251   -0.0003 C   0  0  0  0  0  0  0  0  0  0  0  0
    2.2451    0.4075   -0.0001 C   0  0  0  0  0  0  0  0  0  0  0  0
    3.5950   -0.3127    0.0002 C   0  0  0  0  0  0  0  0  0  0  0  0
    3.7052   -1.1891    1.2495 C   0  0  0  0  0  0  0  0  0  0  0  0
    3.7057   -1.1891   -1.2490 C   0  0  0  0  0  0  0  0  0  0  0  0
    4.7070    0.7044    0.0003 C   0  0  0  0  0  0  0  0  0  0  0  0
    5.9868    0.2996    0.0006 O   0  0  0  0  0  0  0  0  0  0  0  0
    4.4466    1.8842    0.0003 O   0  0  0  0  0  0  0  0  0  0  0  0
   -3.6327   -1.2724   -0.0007 C   0  0  0  0  0  0  0  0  0  0  0  0
   -3.3876   -2.7593   -0.0001 C   0  0  0  0  0  0  0  0  0  0  0  0
   -4.9255   -0.7848   -0.0005 C   0  0  0  0  0  0  0  0  0  0  0  0
   -5.1510    0.5791    0.0051 C   0  0  0  0  0  0  0  0  0  0  0  0
   -4.3939    3.3032   -1.0287 H   0  0  0  0  0  0  0  0  0  0  0  0
   -5.2713    3.1560    0.5130 H   0  0  0  0  0  0  0  0  0  0  0  0
   -3.5159    3.4507    0.5126 H   0  0  0  0  0  0  0  0  0  0  0  0
   -1.9568    1.6638   -0.0017 H   0  0  0  0  0  0  0  0  0  0  0  0
   -0.3123    0.7195   -0.8906 H   0  0  0  0  0  0  0  0  0  0  0  0
   -0.3126    0.7196    0.8894 H   0  0  0  0  0  0  0  0  0  0  0  0
    1.1946   -1.2494    0.8897 H   0  0  0  0  0  0  0  0  0  0  0  0
    1.1950   -1.2495   -0.8902 H   0  0  0  0  0  0  0  0  0  0  0  0
    2.1666    1.0319   -0.8901 H   0  0  0  0  0  0  0  0  0  0  0  0
    2.1663    1.0319    0.8898 H   0  0  0  0  0  0  0  0  0  0  0  0
    2.9009   -1.9247    1.2493 H   0  0  0  0  0  0  0  0  0  0  0  0
    4.6669   -1.7022    1.2497 H   0  0  0  0  0  0  0  0  0  0  0  0
    3.6263   -0.5647    2.1394 H   0  0  0  0  0  0  0  0  0  0  0  0
    3.6272   -0.5648   -2.1390 H   0  0  0  0  0  0  0  0  0  0  0  0
    4.6673   -1.7023   -1.2488 H   0  0  0  0  0  0  0  0  0  0  0  0
    2.9013   -1.9248   -1.2491 H   0  0  0  0  0  0  0  0  0  0  0  0
    6.6652    0.9886    0.0007 H   0  0  0  0  0  0  0  0  0  0  0  0
   -3.3285   -3.1174    1.0277 H   0  0  0  0  0  0  0  0  0  0  0  0
   -4.2065   -3.2628   -0.5138 H   0  0  0  0  0  0  0  0  0  0  0  0
   -2.4503   -2.9732   -0.5138 H   0  0  0  0  0  0  0  0  0  0  0  0
   -5.7605   -1.4698   -0.0006 H   0  0  0  0  0  0  0  0  0  0  0  0
   -6.1623    0.9583    0.0057 H   0  0  0  0  0  0  0  0  0  0  0  0
  1  2  1  0  0  0  0
  1 19  1  0  0  0  0
  1 20  1  0  0  0  0
  1 21  1  0  0  0  0
  2  3  2  0  0  0  0
  2 18  1  0  0  0  0
  3  4  1  0  0  0  0
  3 22  1  0  0  0  0
  4  5  1  0  0  0  0
  4 15  2  0  0  0  0
  5  6  1  0  0  0  0
  6  7  1  0  0  0  0
  6 23  1  0  0  0  0
  6 24  1  0  0  0  0
  7  8  1  0  0  0  0
  7 25  1  0  0  0  0
  7 26  1  0  0  0  0
  8  9  1  0  0  0  0
  8 27  1  0  0  0  0
  8 28  1  0  0  0  0
  9 10  1  0  0  0  0
  9 11  1  0  0  0  0
  9 12  1  0  0  0  0
 10 29  1  0  0  0  0
 10 30  1  0  0  0  0
 10 31  1  0  0  0  0
 11 32  1  0  0  0  0
 11 33  1  0  0  0  0
 11 34  1  0  0  0  0
 12 13  1  0  0  0  0
 12 14  2  0  0  0  0
 13 35  1  0  0  0  0
 15 16  1  0  0  0  0
 15 17  1  0  0  0  0
 16 36  1  0  0  0  0
 16 37  1  0  0  0  0
 16 38  1  0  0  0  0
 17 18  2  0  0  0  0
 17 39  1  0  0  0  0
 18 40  1  0  0  0  0
M  END
>  <likely_enzyme_classes>
monooxygenase; methyl hydroxylase

>  <activity>
-12

>  <molID>
mol000035

>  <name>
gemfibrozil

>  <reference>
Boix et al. (2016); Baena-Nogueras et al. (2017)

>  <speciation_state_pH7.4>
anionic

>  <substance_type>
lipid regulating drug

>  <smiles>
Cc1ccc(C)c(OCCCC(C)(C)C(=O)O)c1

>  <inchi>
InChI=1S/C15H22O3/c1-11-6-7-12(2)13(10-11)18-9-5-8-15(3,4)14(16)17/h6-7,10H,5,8-9H2,1-4H3,(H,16,17)

>  <inchikey>
HEMJJKBWTPKOJG-UHFFFAOYSA-N

$$$$

emcorina  05091710353D 1   1.00000     0.00000 
CORINA evaluation license 3.49 0066  11.04.2013
 33 33  0  0  0  0  0  0  0  0999 V2000
   -3.2422    1.7396   -0.3188 C   0  0  0  0  0  0  0  0  0  0  0  0
   -3.6908    0.4579    0.3861 C   0  0  0  0  0  0  0  0  0  0  0  0
   -5.2175    0.3636    0.3499 C   0  0  0  0  0  0  0  0  0  0  0  0
   -3.0880   -0.7541   -0.3269 C   0  0  0  0  0  0  0  0  0  0  0  0
   -1.5879   -0.7254   -0.1853 C   0  0  0  0  0  0  0  0  0  0  0  0
   -0.9832   -1.3483    0.8905 C   0  0  0  0  0  0  0  0  0  0  0  0
    0.3928   -1.3219    1.0204 C   0  0  0  0  0  0  0  0  0  0  0  0
    1.1641   -0.6730    0.0743 C   0  0  0  0  0  0  0  0  0  0  0  0
    0.5594   -0.0509   -1.0019 C   0  0  0  0  0  0  0  0  0  0  0  0
   -0.8163   -0.0810   -1.1341 C   0  0  0  0  0  0  0  0  0  0  0  0
    2.6641   -0.6434    0.2165 C   0  0  0  0  0  0  0  0  0  0  0  0
    3.3052   -1.3092   -1.0027 C   0  0  0  0  0  0  0  0  0  0  0  0
    3.1315    0.7861    0.3121 C   0  0  0  0  0  0  0  0  0  0  0  0
    4.4394    1.0570    0.4449 O   0  0  0  0  0  0  0  0  0  0  0  0
    2.3289    1.6882    0.2691 O   0  0  0  0  0  0  0  0  0  0  0  0
   -3.5807    1.7220   -1.3548 H   0  0  0  0  0  0  0  0  0  0  0  0
   -3.6717    2.6031    0.1892 H   0  0  0  0  0  0  0  0  0  0  0  0
   -2.1546    1.8068   -0.2930 H   0  0  0  0  0  0  0  0  0  0  0  0
   -3.3523    0.4755    1.4221 H   0  0  0  0  0  0  0  0  0  0  0  0
   -5.5560    0.3461   -0.6860 H   0  0  0  0  0  0  0  0  0  0  0  0
   -5.5371   -0.5495    0.8521 H   0  0  0  0  0  0  0  0  0  0  0  0
   -5.6470    1.2271    0.8579 H   0  0  0  0  0  0  0  0  0  0  0  0
   -3.4776   -1.6691    0.1193 H   0  0  0  0  0  0  0  0  0  0  0  0
   -3.3538   -0.7234   -1.3835 H   0  0  0  0  0  0  0  0  0  0  0  0
   -1.5857   -1.8552    1.6296 H   0  0  0  0  0  0  0  0  0  0  0  0
    0.8652   -1.8080    1.8612 H   0  0  0  0  0  0  0  0  0  0  0  0
    1.1620    0.4563   -1.7408 H   0  0  0  0  0  0  0  0  0  0  0  0
   -1.2887    0.4050   -1.9749 H   0  0  0  0  0  0  0  0  0  0  0  0
    2.9542   -1.1817    1.1189 H   0  0  0  0  0  0  0  0  0  0  0  0
    2.9671   -2.3431   -1.0719 H   0  0  0  0  0  0  0  0  0  0  0  0
    3.0150   -0.7710   -1.9051 H   0  0  0  0  0  0  0  0  0  0  0  0
    4.3901   -1.2878   -0.8999 H   0  0  0  0  0  0  0  0  0  0  0  0
    4.6910    1.9890    0.5022 H   0  0  0  0  0  0  0  0  0  0  0  0
  1  2  1  0  0  0  0
  1 16  1  0  0  0  0
  1 17  1  0  0  0  0
  1 18  1  0  0  0  0
  2  3  1  0  0  0  0
  2  4  1  0  0  0  0
  2 19  1  0  0  0  0
  3 20  1  0  0  0  0
  3 21  1  0  0  0  0
  3 22  1  0  0  0  0
  4  5  1  0  0  0  0
  4 23  1  0  0  0  0
  4 24  1  0  0  0  0
  5  6  2  0  0  0  0
  5 10  1  0  0  0  0
  6  7  1  0  0  0  0
  6 25  1  0  0  0  0
  7  8  2  0  0  0  0
  7 26  1  0  0  0  0
  8  9  1  0  0  0  0
  8 11  1  0  0  0  0
  9 10  2  0  0  0  0
  9 27  1  0  0  0  0
 10 28  1  0  0  0  0
 11 12  1  0  0  0  0
 11 13  1  0  0  0  0
 11 29  1  0  0  0  0
 12 30  1  0  0  0  0
 12 31  1  0  0  0  0
 12 32  1  0  0  0  0
 13 14  1  0  0  0  0
 13 15  2  0  0  0  0
 14 33  1  0  0  0  0
M  END
>  <likely_enzyme_classes>
monooxygenase; decarboxylase

>  <activity>
-11.7

>  <molID>
mol000036

>  <name>
ibuprofen

>  <reference>
Boix et al. (2016); Baena-Nogueras et al. (2017)

>  <speciation_state_pH7.4>
anionic

>  <substance_type>
nonsteroidal anti-inflammatory drug

>  <smiles>
CC(C)Cc1ccc(C(C)C(=O)O)cc1

>  <inchi>
InChI=1S/C13H18O2/c1-9(2)8-11-4-6-12(7-5-11)10(3)13(14)15/h4-7,9-10H,8H2,1-3H3,(H,14,15)

>  <inchikey>
HEFNNWSXXWATRW-UHFFFAOYSA-N

$$$$

emcorina  05091710353D 1   1.00000     0.00000 
CORINA evaluation license 3.49 0066  11.04.2013
  8  7  0  0  0  0  0  0  0  0999 V2000
    1.4209    0.4122   -0.0000 C   0  0  0  0  0  0  0  0  0  0  0  0
   -0.0115   -0.0559    0.0000 C   0  0  0  0  0  0  0  0  0  0  0  0
   -1.0106    0.8405    0.0000 O   0  0  0  0  0  0  0  0  0  0  0  0
   -0.2607   -1.2382    0.0000 O   0  0  0  0  0  0  0  0  0  0  0  0
    1.4471    1.5019   -0.0000 H   0  0  0  0  0  0  0  0  0  0  0  0
    1.9259    0.0366    0.8900 H   0  0  0  0  0  0  0  0  0  0  0  0
    1.9259    0.0366   -0.8900 H   0  0  0  0  0  0  0  0  0  0  0  0
   -1.9127    0.4925    0.0000 H   0  0  0  0  0  0  0  0  0  0  0  0
  1  2  1  0  0  0  0
  1  5  1  0  0  0  0
  1  6  1  0  0  0  0
  1  7  1  0  0  0  0
  2  3  1  0  0  0  0
  2  4  2  0  0  0  0
  3  8  1  0  0  0  0
M  END
>  <likely_enzyme_classes>
monooxygenase?

>  <activity>
-10.2

>  <molID>
mol000037

>  <name>
acetic acid

>  <reference>
Mackay handbook of physical-chemical properties

>  <speciation_state_pH7.4>
anionic

>  <substance_type>
chemical substance

>  <smiles>
CC(=O)O

>  <inchi>
InChI=1S/C2H4O2/c1-2(3)4/h1H3,(H,3,4)

>  <inchikey>
QTBSBXVTEAMEQO-UHFFFAOYSA-N

$$$$

emcorina  05091710353D 1   1.00000     0.00000 
CORINA evaluation license 3.49 0066  11.04.2013
 19 19  0  0  0  0  0  0  0  0999 V2000
   -1.5935    2.3393    0.8491 C   0  0  0  0  0  0  0  0  0  0  0  0
   -1.3080    1.5915   -0.3347 O   0  0  0  0  0  0  0  0  0  0  0  0
   -0.7842    0.3512   -0.1684 C   0  0  0  0  0  0  0  0  0  0  0  0
   -1.6213   -0.7495   -0.0568 C   0  0  0  0  0  0  0  0  0  0  0  0
   -3.3430   -0.5400   -0.1307 Cl  0  0  0  0  0  0  0  0  0  0  0  0
   -1.0866   -2.0128    0.1127 C   0  0  0  0  0  0  0  0  0  0  0  0
    0.2851   -2.1910    0.1726 C   0  0  0  0  0  0  0  0  0  0  0  0
    1.1333   -1.1083    0.0635 C   0  0  0  0  0  0  0  0  0  0  0  0
    2.8522   -1.3391    0.1394 Cl  0  0  0  0  0  0  0  0  0  0  0  0
    0.6059    0.1751   -0.1142 C   0  0  0  0  0  0  0  0  0  0  0  0
    1.5051    1.3362   -0.2315 C   0  0  0  0  0  0  0  0  0  0  0  0
    1.8799    2.0124    0.8722 O   0  0  0  0  0  0  0  0  0  0  0  0
    1.9089    1.6841   -1.3236 O   0  0  0  0  0  0  0  0  0  0  0  0
   -2.0068    3.3100    0.5749 H   0  0  0  0  0  0  0  0  0  0  0  0
   -2.3163    1.7953    1.4570 H   0  0  0  0  0  0  0  0  0  0  0  0
   -0.6751    2.4832    1.4183 H   0  0  0  0  0  0  0  0  0  0  0  0
   -1.7429   -2.8661    0.1994 H   0  0  0  0  0  0  0  0  0  0  0  0
    0.6931   -3.1821    0.3056 H   0  0  0  0  0  0  0  0  0  0  0  0
    2.4709    2.7672    0.7452 H   0  0  0  0  0  0  0  0  0  0  0  0
  1  2  1  0  0  0  0
  1 14  1  0  0  0  0
  1 15  1  0  0  0  0
  1 16  1  0  0  0  0
  2  3  1  0  0  0  0
  3  4  2  0  0  0  0
  3 10  1  0  0  0  0
  4  5  1  0  0  0  0
  4  6  1  0  0  0  0
  6  7  2  0  0  0  0
  6 17  1  0  0  0  0
  7  8  1  0  0  0  0
  7 18  1  0  0  0  0
  8  9  1  0  0  0  0
  8 10  2  0  0  0  0
 10 11  1  0  0  0  0
 11 12  1  0  0  0  0
 11 13  2  0  0  0  0
 12 19  1  0  0  0  0
M  END
>  <likely_enzyme_classes>
monooxygenase; dioxygenase

>  <activity>
-11.6

>  <molID>
mol000038

>  <name>
dicamba

>  <reference>
Scifres et al. (1973)

>  <speciation_state_pH7.4>
anionic

>  <substance_type>
herbicide

>  <smiles>
COc1c(Cl)ccc(Cl)c1C(=O)O

>  <inchi>
InChI=1S/C8H6Cl2O3/c1-13-7-5(10)3-2-4(9)6(7)8(11)12/h2-3H,1H3,(H,11,12)

>  <inchikey>
IWEDIXLBFLAXBO-UHFFFAOYSA-N

$$$$

emcorina  05091710353D 1   1.00000     0.00000 
CORINA evaluation license 3.49 0066  11.04.2013
 23 24  0  0  0  0  0  0  0  0999 V2000
    2.1576    1.5905    0.8063 O   0  0  0  0  0  0  0  0  0  0  0  0
    1.1029    1.3088    0.0253 C   0  0  0  0  0  0  0  0  0  0  0  0
    1.1713    1.4833   -1.1683 O   0  0  0  0  0  0  0  0  0  0  0  0
   -0.1666    0.7750    0.6373 C   0  0  0  0  0  0  0  0  0  0  0  0
   -1.3969    1.1199   -0.2546 C   0  0  0  0  0  0  0  0  0  0  0  0
   -2.6443    0.7751    0.6132 C   0  0  0  0  0  0  0  0  0  0  0  0
   -2.6444   -0.7749    0.6132 C   0  0  0  0  0  0  0  0  0  0  0  0
   -1.3970   -1.1199   -0.2546 C   0  0  0  0  0  0  0  0  0  0  0  0
   -1.3877    0.0000   -1.1995 O   0  0  0  0  0  0  0  0  0  0  0  0
   -0.1667   -0.7750    0.6373 C   0  0  0  0  0  0  0  0  0  0  0  0
    1.1028   -1.3090    0.0254 C   0  0  0  0  0  0  0  0  0  0  0  0
    2.1576   -1.5904    0.8063 O   0  0  0  0  0  0  0  0  0  0  0  0
    1.1710   -1.4838   -1.1682 O   0  0  0  0  0  0  0  0  0  0  0  0
    2.9498    1.9306    0.3683 H   0  0  0  0  0  0  0  0  0  0  0  0
   -0.3002    1.1640    1.6467 H   0  0  0  0  0  0  0  0  0  0  0  0
   -1.3926    2.1189   -0.6906 H   0  0  0  0  0  0  0  0  0  0  0  0
   -2.5289    1.1613    1.6259 H   0  0  0  0  0  0  0  0  0  0  0  0
   -3.5537    1.1613    0.1528 H   0  0  0  0  0  0  0  0  0  0  0  0
   -2.5290   -1.1610    1.6260 H   0  0  0  0  0  0  0  0  0  0  0  0
   -3.5538   -1.1610    0.1528 H   0  0  0  0  0  0  0  0  0  0  0  0
   -1.3986   -2.1144   -0.7007 H   0  0  0  0  0  0  0  0  0  0  0  0
   -0.3003   -1.1639    1.6467 H   0  0  0  0  0  0  0  0  0  0  0  0
    2.9497   -1.9306    0.3683 H   0  0  0  0  0  0  0  0  0  0  0  0
  1  2  1  0  0  0  0
  1 14  1  0  0  0  0
  2  3  2  0  0  0  0
  2  4  1  0  0  0  0
  4  5  1  0  0  0  0
  4 10  1  0  0  0  0
  4 15  1  0  0  0  0
  5  6  1  0  0  0  0
  5  9  1  0  0  0  0
  5 16  1  0  0  0  0
  6  7  1  0  0  0  0
  6 17  1  0  0  0  0
  6 18  1  0  0  0  0
  7  8  1  0  0  0  0
  7 19  1  0  0  0  0
  7 20  1  0  0  0  0
  8  9  1  0  0  0  0
  8 10  1  0  0  0  0
  8 21  1  0  0  0  0
 10 11  1  0  0  0  0
 10 22  1  0  0  0  0
 11 12  1  0  0  0  0
 11 13  2  0  0  0  0
 12 23  1  0  0  0  0
M  END
>  <likely_enzyme_classes>
monooxygenase

>  <activity>
-10.9

>  <molID>
mol000039

>  <name>
endothall

>  <reference>
Hiltibran (1962)

>  <speciation_state_pH7.4>
anionic

>  <substance_type>
herbicide

>  <smiles>
O=C(O)C1C2CCC(O2)C1C(=O)O

>  <inchi>
InChI=1S/C8H10O5/c9-7(10)5-3-1-2-4(13-3)6(5)8(11)12/h3-6H,1-2H2,(H,9,10)(H,11,12)

>  <inchikey>
GXEKYRXVRROBEV-UHFFFAOYSA-N

$$$$

emcorina  05091710353D 1   1.00000     0.00000 
CORINA evaluation license 3.49 0066  11.04.2013
 52 55  0  0  0  0  0  0  0  0999 V2000
   -2.3875   -0.3308   -0.4499 C   0  0  0  0  0  0  0  0  0  0  0  0
   -2.1973   -0.4306   -1.9647 C   0  0  0  0  0  0  0  0  0  0  0  0
   -2.1599    1.0156   -0.0288 O   0  0  0  0  0  0  0  0  0  0  0  0
   -0.8723    1.3749    0.2218 C   0  0  0  0  0  0  0  0  0  0  0  0
    0.1648    0.4948   -0.0377 C   0  0  0  0  0  0  0  0  0  0  0  0
    1.4726    0.9094    0.2365 C   0  0  0  0  0  0  0  0  0  0  0  0
    1.6846    2.1814    0.7563 C   0  0  0  0  0  0  0  0  0  0  0  0
    0.6711    2.9928    0.9907 N   0  0  0  0  0  0  0  0  0  0  0  0
   -0.5782    2.6384    0.7389 C   0  0  0  0  0  0  0  0  0  0  0  0
   -1.6136    3.5315    1.0039 N   0  0  0  0  0  0  0  0  0  0  0  0
    2.6195    0.0024   -0.0238 C   0  0  0  0  0  0  0  0  0  0  0  0
    3.9357    0.2832    0.1984 C   0  0  0  0  0  0  0  0  0  0  0  0
    4.6515   -0.7999   -0.1679 N   0  0  0  0  0  0  0  0  0  0  0  0
    3.7609   -1.7772   -0.6285 N   0  0  0  0  0  0  0  0  0  0  0  0
    2.5451   -1.3061   -0.5392 C   0  0  0  0  0  0  0  0  0  0  0  0
    6.1089   -0.9309   -0.0965 C   0  0  0  0  0  0  0  0  0  0  0  0
    6.7386   -0.3348   -1.3585 C   0  0  0  0  0  0  0  0  0  0  0  0
    8.2629   -0.4194   -1.2509 C   0  0  0  0  0  0  0  0  0  0  0  0
    8.7126    0.3174   -0.0629 N   0  0  0  0  0  0  0  0  0  0  0  0
    8.1583   -0.2663    1.1653 C   0  0  0  0  0  0  0  0  0  0  0  0
    6.6309   -0.1771    1.1298 C   0  0  0  0  0  0  0  0  0  0  0  0
   -3.7937   -0.7381   -0.0923 C   0  0  0  0  0  0  0  0  0  0  0  0
   -4.0303   -1.9715    0.4873 C   0  0  0  0  0  0  0  0  0  0  0  0
   -2.7071   -3.0503    0.8020 Cl  0  0  0  0  0  0  0  0  0  0  0  0
   -5.3211   -2.3458    0.8168 C   0  0  0  0  0  0  0  0  0  0  0  0
   -6.3751   -1.4879    0.5667 C   0  0  0  0  0  0  0  0  0  0  0  0
   -6.1401   -0.2532   -0.0137 C   0  0  0  0  0  0  0  0  0  0  0  0
   -7.1703    0.5859   -0.2580 F   0  0  0  0  0  0  0  0  0  0  0  0
   -4.8470    0.1239   -0.3384 C   0  0  0  0  0  0  0  0  0  0  0  0
   -4.5506    1.6720   -1.0658 Cl  0  0  0  0  0  0  0  0  0  0  0  0
   -1.6796   -0.9923    0.0496 H   0  0  0  0  0  0  0  0  0  0  0  0
   -2.3709   -1.4576   -2.2859 H   0  0  0  0  0  0  0  0  0  0  0  0
   -2.9052    0.2308   -2.4641 H   0  0  0  0  0  0  0  0  0  0  0  0
   -1.1802   -0.1361   -2.2233 H   0  0  0  0  0  0  0  0  0  0  0  0
   -0.0310   -0.4876   -0.4415 H   0  0  0  0  0  0  0  0  0  0  0  0
    2.6911    2.5090    0.9711 H   0  0  0  0  0  0  0  0  0  0  0  0
   -1.4165    4.4074    1.3710 H   0  0  0  0  0  0  0  0  0  0  0  0
   -2.5318    3.2775    0.8215 H   0  0  0  0  0  0  0  0  0  0  0  0
    4.3328    1.2058    0.5953 H   0  0  0  0  0  0  0  0  0  0  0  0
    1.6413   -1.8267   -0.8192 H   0  0  0  0  0  0  0  0  0  0  0  0
    6.3765   -1.9847   -0.0187 H   0  0  0  0  0  0  0  0  0  0  0  0
    6.4038   -0.8948   -2.2316 H   0  0  0  0  0  0  0  0  0  0  0  0
    6.4381    0.7083   -1.4573 H   0  0  0  0  0  0  0  0  0  0  0  0
    8.5636   -1.4636   -1.1660 H   0  0  0  0  0  0  0  0  0  0  0  0
    8.7146    0.0172   -2.1416 H   0  0  0  0  0  0  0  0  0  0  0  0
    9.7200    0.3569   -0.0218 H   0  0  0  0  0  0  0  0  0  0  0  0
    8.4595   -1.3112    1.2389 H   0  0  0  0  0  0  0  0  0  0  0  0
    8.5340    0.2816    2.0295 H   0  0  0  0  0  0  0  0  0  0  0  0
    6.3287    0.8685    1.0702 H   0  0  0  0  0  0  0  0  0  0  0  0
    6.2191   -0.6245    2.0345 H   0  0  0  0  0  0  0  0  0  0  0  0
   -5.5048   -3.3091    1.2693 H   0  0  0  0  0  0  0  0  0  0  0  0
   -7.3824   -1.7808    0.8238 H   0  0  0  0  0  0  0  0  0  0  0  0
  1  2  1  0  0  0  0
  1  3  1  0  0  0  0
  1 22  1  0  0  0  0
  1 31  1  0  0  0  0
  2 32  1  0  0  0  0
  2 33  1  0  0  0  0
  2 34  1  0  0  0  0
  3  4  1  0  0  0  0
  4  5  2  0  0  0  0
  4  9  1  0  0  0  0
  5  6  1  0  0  0  0
  5 35  1  0  0  0  0
  6  7  2  0  0  0  0
  6 11  1  0  0  0  0
  7  8  1  0  0  0  0
  7 36  1  0  0  0  0
  8  9  2  0  0  0  0
  9 10  1  0  0  0  0
 10 37  1  0  0  0  0
 10 38  1  0  0  0  0
 11 12  2  0  0  0  0
 11 15  1  0  0  0  0
 12 13  1  0  0  0  0
 12 39  1  0  0  0  0
 13 14  1  0  0  0  0
 13 16  1  0  0  0  0
 14 15  2  0  0  0  0
 15 40  1  0  0  0  0
 16 17  1  0  0  0  0
 16 21  1  0  0  0  0
 16 41  1  0  0  0  0
 17 18  1  0  0  0  0
 17 42  1  0  0  0  0
 17 43  1  0  0  0  0
 18 19  1  0  0  0  0
 18 44  1  0  0  0  0
 18 45  1  0  0  0  0
 19 20  1  0  0  0  0
 19 46  1  0  0  0  0
 20 21  1  0  0  0  0
 20 47  1  0  0  0  0
 20 48  1  0  0  0  0
 21 49  1  0  0  0  0
 21 50  1  0  0  0  0
 22 23  2  0  0  0  0
 22 29  1  0  0  0  0
 23 24  1  0  0  0  0
 23 25  1  0  0  0  0
 25 26  2  0  0  0  0
 25 51  1  0  0  0  0
 26 27  1  0  0  0  0
 26 52  1  0  0  0  0
 27 28  1  0  0  0  0
 27 29  2  0  0  0  0
 29 30  1  0  0  0  0
M  END
>  <likely_enzyme_classes>
monooxygenase

>  <activity>
-12

>  <molID>
mol000041

>  <name>
crizotinib

>  <reference>
PHIZER CONFIDENTIAL DATA

>  <speciation_state_pH7.4>
cationic

>  <substance_type>
anti-cancer drug

>  <smiles>
C[C@@H](Oc1cc(-c2cnn(C3CCNCC3)c2)cnc1N)c1c(Cl)ccc(F)c1Cl

>  <inchi>
InChI=1S/C21H22Cl2FN5O/c1-12(19-16(22)2-3-17(24)20(19)23)30-18-8-13(9-27-21(18)25)14-10-28-29(11-14)15-4-6-26-7-5-15/h2-3,8-12,15,26H,4-7H2,1H3,(H2,25,27)/t12-/m1/s1

>  <inchikey>
KTEIFNKAUNYNJU-GFCCVEGCSA-N

$$$$

emcorina  05091710353D 1   1.00000     0.00000 
CORINA evaluation license 3.49 0066  11.04.2013
 37 39  0  0  0  0  0  0  0  0999 V2000
    5.0513   -1.1291    1.5293 C   0  0  0  0  0  0  0  0  0  0  0  0
    3.8423   -1.5851    0.8304 N   0  0  0  0  0  0  0  0  0  0  0  0
    3.7024   -0.9166   -0.4702 C   0  0  0  0  0  0  0  0  0  0  0  0
    2.8709   -1.7962   -1.4016 C   0  0  0  0  0  0  0  0  0  0  0  0
    1.4271   -1.8171   -0.8858 C   0  0  0  0  0  0  0  0  0  0  0  0
    0.8136   -0.4373   -1.1155 C   0  0  0  0  0  0  0  0  0  0  0  0
   -0.5260   -0.3686   -0.4286 C   0  0  0  0  0  0  0  0  0  0  0  0
   -1.6684   -0.1217   -1.1661 C   0  0  0  0  0  0  0  0  0  0  0  0
   -2.8984   -0.0589   -0.5360 C   0  0  0  0  0  0  0  0  0  0  0  0
   -4.3339    0.2506   -1.4620 Cl  0  0  0  0  0  0  0  0  0  0  0  0
   -2.9840   -0.2435    0.8334 C   0  0  0  0  0  0  0  0  0  0  0  0
   -4.5268   -0.1656    1.6256 Cl  0  0  0  0  0  0  0  0  0  0  0  0
   -1.8394   -0.4906    1.5702 C   0  0  0  0  0  0  0  0  0  0  0  0
   -0.6121   -0.5582    0.9383 C   0  0  0  0  0  0  0  0  0  0  0  0
    1.7106    0.6397   -0.5637 C   0  0  0  0  0  0  0  0  0  0  0  0
    1.1574    1.8953   -0.3498 C   0  0  0  0  0  0  0  0  0  0  0  0
    1.9281    2.9254    0.1489 C   0  0  0  0  0  0  0  0  0  0  0  0
    3.2619    2.7068    0.4382 C   0  0  0  0  0  0  0  0  0  0  0  0
    3.8128    1.4593    0.2285 C   0  0  0  0  0  0  0  0  0  0  0  0
    3.0386    0.4210   -0.2723 C   0  0  0  0  0  0  0  0  0  0  0  0
    5.1305   -1.6397    2.4891 H   0  0  0  0  0  0  0  0  0  0  0  0
    5.9286   -1.3561    0.9235 H   0  0  0  0  0  0  0  0  0  0  0  0
    4.9919   -0.0533    1.6939 H   0  0  0  0  0  0  0  0  0  0  0  0
    3.8434   -2.5884    0.7231 H   0  0  0  0  0  0  0  0  0  0  0  0
    4.6905   -0.7661   -0.9050 H   0  0  0  0  0  0  0  0  0  0  0  0
    2.8941   -1.3864   -2.4114 H   0  0  0  0  0  0  0  0  0  0  0  0
    3.2736   -2.8091   -1.4067 H   0  0  0  0  0  0  0  0  0  0  0  0
    0.8541   -2.5687   -1.4288 H   0  0  0  0  0  0  0  0  0  0  0  0
    1.4211   -2.0489    0.1793 H   0  0  0  0  0  0  0  0  0  0  0  0
    0.6776   -0.2780   -2.1851 H   0  0  0  0  0  0  0  0  0  0  0  0
   -1.6009    0.0226   -2.2343 H   0  0  0  0  0  0  0  0  0  0  0  0
   -1.9054   -0.6343    2.6385 H   0  0  0  0  0  0  0  0  0  0  0  0
    0.2812   -0.7514    1.5137 H   0  0  0  0  0  0  0  0  0  0  0  0
    0.1154    2.0671   -0.5761 H   0  0  0  0  0  0  0  0  0  0  0  0
    1.4908    3.8993    0.3123 H   0  0  0  0  0  0  0  0  0  0  0  0
    3.8708    3.5097    0.8267 H   0  0  0  0  0  0  0  0  0  0  0  0
    4.8548    1.2889    0.4558 H   0  0  0  0  0  0  0  0  0  0  0  0
  1  2  1  0  0  0  0
  1 21  1  0  0  0  0
  1 22  1  0  0  0  0
  1 23  1  0  0  0  0
  2  3  1  0  0  0  0
  2 24  1  0  0  0  0
  3  4  1  0  0  0  0
  3 20  1  0  0  0  0
  3 25  1  0  0  0  0
  4  5  1  0  0  0  0
  4 26  1  0  0  0  0
  4 27  1  0  0  0  0
  5  6  1  0  0  0  0
  5 28  1  0  0  0  0
  5 29  1  0  0  0  0
  6  7  1  0  0  0  0
  6 15  1  0  0  0  0
  6 30  1  0  0  0  0
  7  8  2  0  0  0  0
  7 14  1  0  0  0  0
  8  9  1  0  0  0  0
  8 31  1  0  0  0  0
  9 10  1  0  0  0  0
  9 11  2  0  0  0  0
 11 12  1  0  0  0  0
 11 13  1  0  0  0  0
 13 14  2  0  0  0  0
 13 32  1  0  0  0  0
 14 33  1  0  0  0  0
 15 16  2  0  0  0  0
 15 20  1  0  0  0  0
 16 17  1  0  0  0  0
 16 34  1  0  0  0  0
 17 18  2  0  0  0  0
 17 35  1  0  0  0  0
 18 19  1  0  0  0  0
 18 36  1  0  0  0  0
 19 20  2  0  0  0  0
 19 37  1  0  0  0  0
M  END
>  <likely_enzyme_classes>
monooxygenase

>  <activity>
-11.9

>  <molID>
mol000042

>  <name>
sertraline

>  <reference>
Lam et al. (2004)

>  <speciation_state_pH7.4>
cationic

>  <substance_type>
serotonin inhibitor drug

>  <smiles>
CN[C@H]1CC[C@@H](c2ccc(Cl)c(Cl)c2)c2ccccc21

>  <inchi>
InChI=1S/C17H17Cl2N/c1-20-17-9-7-12(13-4-2-3-5-14(13)17)11-6-8-15(18)16(19)10-11/h2-6,8,10,12,17,20H,7,9H2,1H3/t12-,17-/m0/s1

>  <inchikey>
VGKDLMBJGBXTGI-SJCJKPOMSA-N

$$$$

emcorina  05091710353D 1   1.00000     0.00000 
CORINA evaluation license 3.49 0066  11.04.2013
 47 48  0  0  0  0  0  0  0  0999 V2000
   -4.9994   -1.6791    0.9903 C   0  0  0  0  0  0  0  0  0  0  0  0
   -4.4886   -1.2573   -0.2759 O   0  0  0  0  0  0  0  0  0  0  0  0
   -3.2141   -0.7864   -0.3012 C   0  0  0  0  0  0  0  0  0  0  0  0
   -2.6545   -0.3599   -1.4969 C   0  0  0  0  0  0  0  0  0  0  0  0
   -1.3587    0.1184   -1.5200 C   0  0  0  0  0  0  0  0  0  0  0  0
   -0.6195    0.1722   -0.3527 C   0  0  0  0  0  0  0  0  0  0  0  0
   -1.1747   -0.2527    0.8401 C   0  0  0  0  0  0  0  0  0  0  0  0
   -2.4723   -0.7260    0.8696 C   0  0  0  0  0  0  0  0  0  0  0  0
    0.7938    0.6944   -0.3808 C   0  0  0  0  0  0  0  0  0  0  0  0
    0.9047    1.9153    0.5345 C   0  0  0  0  0  0  0  0  0  0  0  0
    0.0264    2.9823    0.0362 N   0  0  0  0  0  0  0  0  0  0  0  0
   -0.1887    4.0099    1.0637 C   0  0  0  0  0  0  0  0  0  0  0  0
    0.5642    3.5743   -1.1960 C   0  0  0  0  0  0  0  0  0  0  0  0
    1.7502   -0.3963    0.1057 C   0  0  0  0  0  0  0  0  0  0  0  0
    1.4877   -0.6812    1.4812 O   0  0  0  0  0  0  0  0  0  0  0  0
    1.5438   -1.6637   -0.7261 C   0  0  0  0  0  0  0  0  0  0  0  0
    2.5002   -2.7544   -0.2396 C   0  0  0  0  0  0  0  0  0  0  0  0
    3.9441   -2.2725   -0.3940 C   0  0  0  0  0  0  0  0  0  0  0  0
    4.1506   -1.0051    0.4377 C   0  0  0  0  0  0  0  0  0  0  0  0
    3.1941    0.0856   -0.0488 C   0  0  0  0  0  0  0  0  0  0  0  0
   -4.9832   -0.8403    1.6863 H   0  0  0  0  0  0  0  0  0  0  0  0
   -6.0238   -2.0315    0.8698 H   0  0  0  0  0  0  0  0  0  0  0  0
   -4.3807   -2.4871    1.3808 H   0  0  0  0  0  0  0  0  0  0  0  0
   -3.2314   -0.4021   -2.4090 H   0  0  0  0  0  0  0  0  0  0  0  0
   -0.9226    0.4502   -2.4506 H   0  0  0  0  0  0  0  0  0  0  0  0
   -0.5951   -0.2103    1.7504 H   0  0  0  0  0  0  0  0  0  0  0  0
   -2.9055   -1.0577    1.8016 H   0  0  0  0  0  0  0  0  0  0  0  0
    1.0557    0.9792   -1.3998 H   0  0  0  0  0  0  0  0  0  0  0  0
    0.6043    1.6400    1.5455 H   0  0  0  0  0  0  0  0  0  0  0  0
    1.9357    2.2689    0.5454 H   0  0  0  0  0  0  0  0  0  0  0  0
    0.7687    4.4483    1.3452 H   0  0  0  0  0  0  0  0  0  0  0  0
   -0.8423    4.7876    0.6685 H   0  0  0  0  0  0  0  0  0  0  0  0
   -0.6522    3.5563    1.9397 H   0  0  0  0  0  0  0  0  0  0  0  0
    0.6755    2.7984   -1.9534 H   0  0  0  0  0  0  0  0  0  0  0  0
   -0.1199    4.3412   -1.5592 H   0  0  0  0  0  0  0  0  0  0  0  0
    1.5361    4.0226   -0.9896 H   0  0  0  0  0  0  0  0  0  0  0  0
    2.0585   -1.3652    1.8570 H   0  0  0  0  0  0  0  0  0  0  0  0
    0.5152   -2.0070   -0.6161 H   0  0  0  0  0  0  0  0  0  0  0  0
    1.7441   -1.4464   -1.7753 H   0  0  0  0  0  0  0  0  0  0  0  0
    2.3000   -2.9717    0.8096 H   0  0  0  0  0  0  0  0  0  0  0  0
    2.3532   -3.6573   -0.8321 H   0  0  0  0  0  0  0  0  0  0  0  0
    4.6255   -3.0495   -0.0474 H   0  0  0  0  0  0  0  0  0  0  0  0
    4.1444   -2.0552   -1.4432 H   0  0  0  0  0  0  0  0  0  0  0  0
    3.9503   -1.2224    1.4869 H   0  0  0  0  0  0  0  0  0  0  0  0
    5.1792   -0.6618    0.3277 H   0  0  0  0  0  0  0  0  0  0  0  0
    3.3944    0.3029   -1.0980 H   0  0  0  0  0  0  0  0  0  0  0  0
    3.3412    0.9886    0.5438 H   0  0  0  0  0  0  0  0  0  0  0  0
  1  2  1  0  0  0  0
  1 21  1  0  0  0  0
  1 22  1  0  0  0  0
  1 23  1  0  0  0  0
  2  3  1  0  0  0  0
  3  4  2  0  0  0  0
  3  8  1  0  0  0  0
  4  5  1  0  0  0  0
  4 24  1  0  0  0  0
  5  6  2  0  0  0  0
  5 25  1  0  0  0  0
  6  7  1  0  0  0  0
  6  9  1  0  0  0  0
  7  8  2  0  0  0  0
  7 26  1  0  0  0  0
  8 27  1  0  0  0  0
  9 10  1  0  0  0  0
  9 14  1  0  0  0  0
  9 28  1  0  0  0  0
 10 11  1  0  0  0  0
 10 29  1  0  0  0  0
 10 30  1  0  0  0  0
 11 12  1  0  0  0  0
 11 13  1  0  0  0  0
 12 31  1  0  0  0  0
 12 32  1  0  0  0  0
 12 33  1  0  0  0  0
 13 34  1  0  0  0  0
 13 35  1  0  0  0  0
 13 36  1  0  0  0  0
 14 15  1  0  0  0  0
 14 16  1  0  0  0  0
 14 20  1  0  0  0  0
 15 37  1  0  0  0  0
 16 17  1  0  0  0  0
 16 38  1  0  0  0  0
 16 39  1  0  0  0  0
 17 18  1  0  0  0  0
 17 40  1  0  0  0  0
 17 41  1  0  0  0  0
 18 19  1  0  0  0  0
 18 42  1  0  0  0  0
 18 43  1  0  0  0  0
 19 20  1  0  0  0  0
 19 44  1  0  0  0  0
 19 45  1  0  0  0  0
 20 46  1  0  0  0  0
 20 47  1  0  0  0  0
M  END
>  <likely_enzyme_classes>
monooxygenase

>  <activity>
-12

>  <molID>
mol000043

>  <name>
venlafaxine

>  <reference>
Boix et al. (2016); Gasser et al. (2012)

>  <speciation_state_pH7.4>
cationic

>  <substance_type>
antidepressant drug

>  <smiles>
COc1ccc(C(CN(C)C)C2(O)CCCCC2)cc1

>  <inchi>
InChI=1S/C17H27NO2/c1-18(2)13-16(17(19)11-5-4-6-12-17)14-7-9-15(20-3)10-8-14/h7-10,16,19H,4-6,11-13H2,1-3H3

>  <inchikey>
PNVNVHUZROJLTJ-UHFFFAOYSA-N

$$$$

emcorina  05091710353D 1   1.00000     0.00000 
CORINA evaluation license 3.49 0066  11.04.2013
 16 15  0  0  0  0  0  0  0  0999 V2000
    2.4480   -0.3663    0.0292 C   0  0  0  0  0  0  0  0  0  0  0  0
    1.2106    0.5325   -0.0160 C   0  0  0  0  0  0  0  0  0  0  0  0
   -0.0000   -0.2985    0.0258 N   0  0  0  0  0  0  0  0  0  0  0  0
   -1.2106    0.5325   -0.0160 C   0  0  0  0  0  0  0  0  0  0  0  0
   -2.4480   -0.3663    0.0292 C   0  0  0  0  0  0  0  0  0  0  0  0
    3.3463    0.2503   -0.0018 H   0  0  0  0  0  0  0  0  0  0  0  0
    2.4396   -0.9502    0.9496 H   0  0  0  0  0  0  0  0  0  0  0  0
    2.4396   -1.0394   -0.8281 H   0  0  0  0  0  0  0  0  0  0  0  0
    1.2190    1.2056    0.8413 H   0  0  0  0  0  0  0  0  0  0  0  0
    1.2190    1.1163   -0.9364 H   0  0  0  0  0  0  0  0  0  0  0  0
   -0.0000   -0.9753   -0.7226 H   0  0  0  0  0  0  0  0  0  0  0  0
   -1.2190    1.2056    0.8413 H   0  0  0  0  0  0  0  0  0  0  0  0
   -1.2190    1.1163   -0.9364 H   0  0  0  0  0  0  0  0  0  0  0  0
   -3.3463    0.2503   -0.0018 H   0  0  0  0  0  0  0  0  0  0  0  0
   -2.4396   -1.0394   -0.8281 H   0  0  0  0  0  0  0  0  0  0  0  0
   -2.4396   -0.9502    0.9496 H   0  0  0  0  0  0  0  0  0  0  0  0
  1  2  1  0  0  0  0
  1  6  1  0  0  0  0
  1  7  1  0  0  0  0
  1  8  1  0  0  0  0
  2  3  1  0  0  0  0
  2  9  1  0  0  0  0
  2 10  1  0  0  0  0
  3  4  1  0  0  0  0
  3 11  1  0  0  0  0
  4  5  1  0  0  0  0
  4 12  1  0  0  0  0
  4 13  1  0  0  0  0
  5 14  1  0  0  0  0
  5 15  1  0  0  0  0
  5 16  1  0  0  0  0
M  END
>  <likely_enzyme_classes>
monooxygenase

>  <activity>
-9.6

>  <molID>
mol000044

>  <name>
dimethylamine

>  <reference>
Howard: Handbook of Environmental Fate and Exposure Data For Organic Chemicals, Volume 2

>  <speciation_state_pH7.4>
cationic

>  <substance_type>
chemical substance

>  <smiles>
CCNCC

>  <inchi>
InChI=1S/C4H11N/c1-3-5-4-2/h5H,3-4H2,1-2H3

>  <inchikey>
HPNMFZURTQLUMO-UHFFFAOYSA-N

$$$$

emcorina  05091710353D 1   1.00000     0.00000 
CORINA evaluation license 3.49 0066  11.04.2013
 40 41  0  0  0  0  0  0  0  0999 V2000
    6.1622   -0.5897   -1.0382 C   0  0  0  0  0  0  0  0  0  0  0  0
    5.6544   -0.2401    0.3620 C   0  0  0  0  0  0  0  0  0  0  0  0
    6.6972    0.6158    1.0838 C   0  0  0  0  0  0  0  0  0  0  0  0
    4.3958    0.5096    0.2535 N   0  0  0  0  0  0  0  0  0  0  0  0
    3.2493   -0.4010    0.1336 C   0  0  0  0  0  0  0  0  0  0  0  0
    1.9596    0.4147    0.0230 C   0  0  0  0  0  0  0  0  0  0  0  0
    1.9741    1.1663   -1.1923 O   0  0  0  0  0  0  0  0  0  0  0  0
    0.7566   -0.5307    0.0237 C   0  0  0  0  0  0  0  0  0  0  0  0
   -0.4503    0.2343    0.0378 O   0  0  0  0  0  0  0  0  0  0  0  0
   -1.6189   -0.4577    0.0403 C   0  0  0  0  0  0  0  0  0  0  0  0
   -1.6093   -1.8239    0.0295 C   0  0  0  0  0  0  0  0  0  0  0  0
   -2.7986   -2.5480    0.0319 C   0  0  0  0  0  0  0  0  0  0  0  0
   -4.0049   -1.9173    0.0449 C   0  0  0  0  0  0  0  0  0  0  0  0
   -4.0580   -0.5126    0.0567 C   0  0  0  0  0  0  0  0  0  0  0  0
   -5.2856    0.1707    0.0693 C   0  0  0  0  0  0  0  0  0  0  0  0
   -5.2986    1.5320    0.0796 C   0  0  0  0  0  0  0  0  0  0  0  0
   -4.1111    2.2603    0.0774 C   0  0  0  0  0  0  0  0  0  0  0  0
   -2.9033    1.6314    0.0654 C   0  0  0  0  0  0  0  0  0  0  0  0
   -2.8504    0.2288    0.0599 C   0  0  0  0  0  0  0  0  0  0  0  0
    7.0961   -1.1460   -0.9577 H   0  0  0  0  0  0  0  0  0  0  0  0
    5.4193   -1.1995   -1.5524 H   0  0  0  0  0  0  0  0  0  0  0  0
    6.3330    0.3272   -1.6022 H   0  0  0  0  0  0  0  0  0  0  0  0
    5.4836   -1.1571    0.9260 H   0  0  0  0  0  0  0  0  0  0  0  0
    6.8680    1.5327    0.5198 H   0  0  0  0  0  0  0  0  0  0  0  0
    6.3355    0.8648    2.0813 H   0  0  0  0  0  0  0  0  0  0  0  0
    7.6311    0.0595    1.1643 H   0  0  0  0  0  0  0  0  0  0  0  0
    4.2796    1.1363    1.0356 H   0  0  0  0  0  0  0  0  0  0  0  0
    3.3667   -1.0177   -0.7574 H   0  0  0  0  0  0  0  0  0  0  0  0
    3.2000   -1.0410    1.0146 H   0  0  0  0  0  0  0  0  0  0  0  0
    1.8868    1.0960    0.8707 H   0  0  0  0  0  0  0  0  0  0  0  0
    2.0375    0.6232   -1.9899 H   0  0  0  0  0  0  0  0  0  0  0  0
    0.7824   -1.1522   -0.8714 H   0  0  0  0  0  0  0  0  0  0  0  0
    0.7944   -1.1661    0.9085 H   0  0  0  0  0  0  0  0  0  0  0  0
   -0.6659   -2.3497    0.0187 H   0  0  0  0  0  0  0  0  0  0  0  0
   -2.7635   -3.6274    0.0229 H   0  0  0  0  0  0  0  0  0  0  0  0
   -4.9180   -2.4940    0.0459 H   0  0  0  0  0  0  0  0  0  0  0  0
   -6.2140   -0.3811    0.0704 H   0  0  0  0  0  0  0  0  0  0  0  0
   -6.2435    2.0550    0.0892 H   0  0  0  0  0  0  0  0  0  0  0  0
   -4.1489    3.3396    0.0850 H   0  0  0  0  0  0  0  0  0  0  0  0
   -1.9907    2.2090    0.0638 H   0  0  0  0  0  0  0  0  0  0  0  0
  1  2  1  0  0  0  0
  1 20  1  0  0  0  0
  1 21  1  0  0  0  0
  1 22  1  0  0  0  0
  2  3  1  0  0  0  0
  2  4  1  0  0  0  0
  2 23  1  0  0  0  0
  3 24  1  0  0  0  0
  3 25  1  0  0  0  0
  3 26  1  0  0  0  0
  4  5  1  0  0  0  0
  4 27  1  0  0  0  0
  5  6  1  0  0  0  0
  5 28  1  0  0  0  0
  5 29  1  0  0  0  0
  6  7  1  0  0  0  0
  6  8  1  0  0  0  0
  6 30  1  0  0  0  0
  7 31  1  0  0  0  0
  8  9  1  0  0  0  0
  8 32  1  0  0  0  0
  8 33  1  0  0  0  0
  9 10  1  0  0  0  0
 10 11  2  0  0  0  0
 10 19  1  0  0  0  0
 11 12  1  0  0  0  0
 11 34  1  0  0  0  0
 12 13  2  0  0  0  0
 12 35  1  0  0  0  0
 13 14  1  0  0  0  0
 13 36  1  0  0  0  0
 14 15  2  0  0  0  0
 14 19  1  0  0  0  0
 15 16  1  0  0  0  0
 15 37  1  0  0  0  0
 16 17  2  0  0  0  0
 16 38  1  0  0  0  0
 17 18  1  0  0  0  0
 17 39  1  0  0  0  0
 18 19  2  0  0  0  0
 18 40  1  0  0  0  0
M  END
>  <likely_enzyme_classes>
alcohol dehydrogenase; monooxygenase

>  <activity>
-11

>  <molID>
mol000045

>  <name>
propranolol

>  <reference>
Lin et al. (2010); Baena-Nogueras et al. (2017)

>  <speciation_state_pH7.4>
cationic

>  <substance_type>
beta blocker drug

>  <smiles>
CC(C)NCC(O)COc1cccc2ccccc21

>  <inchi>
InChI=1S/C16H21NO2/c1-12(2)17-10-14(18)11-19-16-9-5-7-13-6-3-4-8-15(13)16/h3-9,12,14,17-18H,10-11H2,1-2H3

>  <inchikey>
AQHHHDLHHXJYJD-UHFFFAOYSA-N

$$$$

emcorina  05091710353D 1   1.00000     0.00000 
CORINA evaluation license 3.49 0066  11.04.2013
 52 52  0  0  0  0  0  0  0  0999 V2000
    8.1553    2.7116   -0.0649 C   0  0  0  0  0  0  0  0  0  0  0  0
    6.6618    2.4716   -0.2947 C   0  0  0  0  0  0  0  0  0  0  0  0
    6.2786    1.0910    0.2420 C   0  0  0  0  0  0  0  0  0  0  0  0
    4.8076    0.8546    0.0156 C   0  0  0  0  0  0  0  0  0  0  0  0
    4.1321    1.7066   -0.5221 O   0  0  0  0  0  0  0  0  0  0  0  0
    4.2425   -0.3034    0.4107 N   0  0  0  0  0  0  0  0  0  0  0  0
    2.8566   -0.4799    0.3015 C   0  0  0  0  0  0  0  0  0  0  0  0
    2.3409   -1.7329    0.0256 C   0  0  0  0  0  0  0  0  0  0  0  0
    0.9560   -1.9069   -0.0826 C   0  0  0  0  0  0  0  0  0  0  0  0
    0.3994   -3.2334   -0.3748 C   0  0  0  0  0  0  0  0  0  0  0  0
    1.3194   -4.4127   -0.5592 C   0  0  0  0  0  0  0  0  0  0  0  0
   -0.8011   -3.3803   -0.4677 O   0  0  0  0  0  0  0  0  0  0  0  0
    0.1025   -0.8055    0.0904 C   0  0  0  0  0  0  0  0  0  0  0  0
   -1.2410   -0.9632   -0.0118 O   0  0  0  0  0  0  0  0  0  0  0  0
   -2.0471    0.2016    0.1763 C   0  0  0  0  0  0  0  0  0  0  0  0
   -3.5236   -0.1700    0.0246 C   0  0  0  0  0  0  0  0  0  0  0  0
   -3.9000   -1.0638    1.0741 O   0  0  0  0  0  0  0  0  0  0  0  0
   -4.3787    1.0963    0.1019 C   0  0  0  0  0  0  0  0  0  0  0  0
   -5.7963    0.7395   -0.0437 N   0  0  0  0  0  0  0  0  0  0  0  0
   -6.6495    1.9333    0.0256 C   0  0  0  0  0  0  0  0  0  0  0  0
   -6.7374    2.5785   -1.3589 C   0  0  0  0  0  0  0  0  0  0  0  0
   -8.0506    1.5325    0.4914 C   0  0  0  0  0  0  0  0  0  0  0  0
    0.6371    0.4440    0.3667 C   0  0  0  0  0  0  0  0  0  0  0  0
    2.0030    0.6054    0.4768 C   0  0  0  0  0  0  0  0  0  0  0  0
    8.3709    2.6640    1.0025 H   0  0  0  0  0  0  0  0  0  0  0  0
    8.7307    1.9465   -0.5862 H   0  0  0  0  0  0  0  0  0  0  0  0
    8.4283    3.6951   -0.4472 H   0  0  0  0  0  0  0  0  0  0  0  0
    6.0865    3.2366    0.2266 H   0  0  0  0  0  0  0  0  0  0  0  0
    6.4462    2.5191   -1.3621 H   0  0  0  0  0  0  0  0  0  0  0  0
    6.8540    0.3260   -0.2793 H   0  0  0  0  0  0  0  0  0  0  0  0
    6.4942    1.0435    1.3094 H   0  0  0  0  0  0  0  0  0  0  0  0
    4.7951   -1.0148    0.7705 H   0  0  0  0  0  0  0  0  0  0  0  0
    3.0045   -2.5746   -0.1064 H   0  0  0  0  0  0  0  0  0  0  0  0
    1.4876   -4.8963    0.4031 H   0  0  0  0  0  0  0  0  0  0  0  0
    0.8646   -5.1239   -1.2487 H   0  0  0  0  0  0  0  0  0  0  0  0
    2.2713   -4.0708   -0.9654 H   0  0  0  0  0  0  0  0  0  0  0  0
   -1.8748    0.6055    1.1739 H   0  0  0  0  0  0  0  0  0  0  0  0
   -1.7826    0.9509   -0.5698 H   0  0  0  0  0  0  0  0  0  0  0  0
   -3.6790   -0.6552   -0.9390 H   0  0  0  0  0  0  0  0  0  0  0  0
   -3.7878   -0.6974    1.9619 H   0  0  0  0  0  0  0  0  0  0  0  0
   -4.2233    1.5814    1.0655 H   0  0  0  0  0  0  0  0  0  0  0  0
   -4.0916    1.7781   -0.6986 H   0  0  0  0  0  0  0  0  0  0  0  0
   -5.9550    0.2309   -0.9006 H   0  0  0  0  0  0  0  0  0  0  0  0
   -6.2217    2.6451    0.7316 H   0  0  0  0  0  0  0  0  0  0  0  0
   -7.3704    3.4643   -1.3075 H   0  0  0  0  0  0  0  0  0  0  0  0
   -5.7392    2.8640   -1.6908 H   0  0  0  0  0  0  0  0  0  0  0  0
   -7.1652    1.8667   -2.0649 H   0  0  0  0  0  0  0  0  0  0  0  0
   -7.9880    1.0729    1.4778 H   0  0  0  0  0  0  0  0  0  0  0  0
   -8.6837    2.4183    0.5428 H   0  0  0  0  0  0  0  0  0  0  0  0
   -8.4784    0.8207   -0.2146 H   0  0  0  0  0  0  0  0  0  0  0  0
   -0.0178    1.2923    0.5001 H   0  0  0  0  0  0  0  0  0  0  0  0
    2.4127    1.5813    0.6921 H   0  0  0  0  0  0  0  0  0  0  0  0
  1  2  1  0  0  0  0
  1 25  1  0  0  0  0
  1 26  1  0  0  0  0
  1 27  1  0  0  0  0
  2  3  1  0  0  0  0
  2 28  1  0  0  0  0
  2 29  1  0  0  0  0
  3  4  1  0  0  0  0
  3 30  1  0  0  0  0
  3 31  1  0  0  0  0
  4  5  2  0  0  0  0
  4  6  1  0  0  0  0
  6  7  1  0  0  0  0
  6 32  1  0  0  0  0
  7  8  2  0  0  0  0
  7 24  1  0  0  0  0
  8  9  1  0  0  0  0
  8 33  1  0  0  0  0
  9 10  1  0  0  0  0
  9 13  2  0  0  0  0
 10 11  1  0  0  0  0
 10 12  2  0  0  0  0
 11 34  1  0  0  0  0
 11 35  1  0  0  0  0
 11 36  1  0  0  0  0
 13 14  1  0  0  0  0
 13 23  1  0  0  0  0
 14 15  1  0  0  0  0
 15 16  1  0  0  0  0
 15 37  1  0  0  0  0
 15 38  1  0  0  0  0
 16 17  1  0  0  0  0
 16 18  1  0  0  0  0
 16 39  1  0  0  0  0
 17 40  1  0  0  0  0
 18 19  1  0  0  0  0
 18 41  1  0  0  0  0
 18 42  1  0  0  0  0
 19 20  1  0  0  0  0
 19 43  1  0  0  0  0
 20 21  1  0  0  0  0
 20 22  1  0  0  0  0
 20 44  1  0  0  0  0
 21 45  1  0  0  0  0
 21 46  1  0  0  0  0
 21 47  1  0  0  0  0
 22 48  1  0  0  0  0
 22 49  1  0  0  0  0
 22 50  1  0  0  0  0
 23 24  2  0  0  0  0
 23 51  1  0  0  0  0
 24 52  1  0  0  0  0
M  END
>  <likely_enzyme_classes>
amine dehydrogenase; alcohol dehydrogenase; monooxygenase; dioxygenase; amidohydrolase

>  <activity>
-11.6

>  <molID>
mol000048

>  <name>
acebutolol

>  <reference>
Lin et al. (2010)

>  <speciation_state_pH7.4>
cationic

>  <substance_type>
beta blocker drug

>  <smiles>
CCCC(O)=Nc1ccc(OCC(O)CNC(C)C)c(C(C)=O)c1

>  <inchi>
InChI=1S/C18H28N2O4/c1-5-6-18(23)20-14-7-8-17(16(9-14)13(4)21)24-11-15(22)10-19-12(2)3/h7-9,12,15,19,22H,5-6,10-11H2,1-4H3,(H,20,23)

>  <inchikey>
GOEMGAFJFRBGGG-UHFFFAOYSA-N

$$$$

emcorina  05091710353D 1   1.00000     0.00000 
CORINA evaluation license 3.49 0066  11.04.2013
 13 13  0  0  0  0  0  0  0  0999 V2000
    2.4189   -1.5287   -0.0227 O   0  0  0  0  0  0  0  0  0  0  0  0
    1.1472   -1.0483   -0.0150 C   0  0  0  0  0  0  0  0  0  0  0  0
    0.9218    0.3213   -0.0062 C   0  0  0  0  0  0  0  0  0  0  0  0
    2.2636    1.4227   -0.0050 Cl  0  0  0  0  0  0  0  0  0  0  0  0
   -0.3725    0.8075    0.0012 C   0  0  0  0  0  0  0  0  0  0  0  0
   -1.4418   -0.0703   -0.0002 C   0  0  0  0  0  0  0  0  0  0  0  0
   -3.0661    0.5423    0.0091 Cl  0  0  0  0  0  0  0  0  0  0  0  0
   -1.2184   -1.4359   -0.0094 C   0  0  0  0  0  0  0  0  0  0  0  0
    0.0732   -1.9259   -0.0217 C   0  0  0  0  0  0  0  0  0  0  0  0
    2.7903   -1.6729    0.8584 H   0  0  0  0  0  0  0  0  0  0  0  0
   -0.5488    1.8730    0.0084 H   0  0  0  0  0  0  0  0  0  0  0  0
   -2.0547   -2.1193   -0.0109 H   0  0  0  0  0  0  0  0  0  0  0  0
    0.2466   -2.9918   -0.0288 H   0  0  0  0  0  0  0  0  0  0  0  0
  1  2  1  0  0  0  0
  1 10  1  0  0  0  0
  2  3  2  0  0  0  0
  2  9  1  0  0  0  0
  3  4  1  0  0  0  0
  3  5  1  0  0  0  0
  5  6  2  0  0  0  0
  5 11  1  0  0  0  0
  6  7  1  0  0  0  0
  6  8  1  0  0  0  0
  8  9  2  0  0  0  0
  8 12  1  0  0  0  0
  9 13  1  0  0  0  0
M  END
>  <likely_enzyme_classes>
monooxygenase; dehalogenase

>  <activity>
-9.8

>  <molID>
mol000051

>  <name>
2,4-dichlorophenol

>  <reference>
Mackay handbook of physical-chemical properties

>  <speciation_state_pH7.4>
neutral

>  <substance_type>
chemical substance

>  <smiles>
Oc1ccc(Cl)cc1Cl

>  <inchi>
InChI=1S/C6H4Cl2O/c7-4-1-2-6(9)5(8)3-4/h1-3,9H

>  <inchikey>
HFZWRUODUSTPEG-UHFFFAOYSA-N

$$$$

emcorina  05091710353D 1   1.00000     0.00000 
CORINA evaluation license 3.49 0066  11.04.2013
 13 13  0  0  0  0  0  0  0  0999 V2000
   -0.5405    2.0381    0.0320 O   0  0  0  0  0  0  0  0  0  0  0  0
    0.2411    0.9261    0.0169 C   0  0  0  0  0  0  0  0  0  0  0  0
    1.6224    1.0480    0.0178 C   0  0  0  0  0  0  0  0  0  0  0  0
    2.4150   -0.0840    0.0024 C   0  0  0  0  0  0  0  0  0  0  0  0
    1.8324   -1.3374   -0.0144 C   0  0  0  0  0  0  0  0  0  0  0  0
    0.4552   -1.4626   -0.0154 C   0  0  0  0  0  0  0  0  0  0  0  0
   -0.3422   -0.3339    0.0063 C   0  0  0  0  0  0  0  0  0  0  0  0
   -2.0711   -0.4912    0.0057 Cl  0  0  0  0  0  0  0  0  0  0  0  0
   -0.7671    2.3715   -0.8469 H   0  0  0  0  0  0  0  0  0  0  0  0
    2.0785    2.0269    0.0302 H   0  0  0  0  0  0  0  0  0  0  0  0
    3.4908    0.0108    0.0031 H   0  0  0  0  0  0  0  0  0  0  0  0
    2.4540   -2.2206   -0.0272 H   0  0  0  0  0  0  0  0  0  0  0  0
    0.0025   -2.4431   -0.0289 H   0  0  0  0  0  0  0  0  0  0  0  0
  1  2  1  0  0  0  0
  1  9  1  0  0  0  0
  2  3  2  0  0  0  0
  2  7  1  0  0  0  0
  3  4  1  0  0  0  0
  3 10  1  0  0  0  0
  4  5  2  0  0  0  0
  4 11  1  0  0  0  0
  5  6  1  0  0  0  0
  5 12  1  0  0  0  0
  6  7  2  0  0  0  0
  6 13  1  0  0  0  0
  7  8  1  0  0  0  0
M  END
>  <likely_enzyme_classes>
monooxygenase

>  <activity>
-10

>  <molID>
mol000052

>  <name>
2-chlorophenol

>  <reference>
Mackay handbook of physical-chemical properties

>  <speciation_state_pH7.4>
neutral

>  <substance_type>
chemical substance

>  <smiles>
Oc1ccccc1Cl

>  <inchi>
InChI=1S/C6H5ClO/c7-5-3-1-2-4-6(5)8/h1-4,8H

>  <inchikey>
ISPYQTSUDJAMAB-UHFFFAOYSA-N

$$$$

emcorina  05091710353D 1   1.00000     0.00000 
CORINA evaluation license 3.49 0066  11.04.2013
 16 16  0  0  0  0  0  0  0  0999 V2000
    1.0503    2.1625   -0.0018 C   0  0  0  0  0  0  0  0  0  0  0  0
    0.1822    0.9306   -0.0067 C   0  0  0  0  0  0  0  0  0  0  0  0
    0.7634   -0.3247   -0.0018 C   0  0  0  0  0  0  0  0  0  0  0  0
    2.4925   -0.4794    0.0099 Cl  0  0  0  0  0  0  0  0  0  0  0  0
   -0.0317   -1.4574   -0.0059 C   0  0  0  0  0  0  0  0  0  0  0  0
   -1.4075   -1.3364   -0.0147 C   0  0  0  0  0  0  0  0  0  0  0  0
   -1.9924   -0.0783   -0.0196 C   0  0  0  0  0  0  0  0  0  0  0  0
   -3.3462    0.0428   -0.0278 O   0  0  0  0  0  0  0  0  0  0  0  0
   -1.1938    1.0558   -0.0102 C   0  0  0  0  0  0  0  0  0  0  0  0
    1.2665    2.4587   -1.0282 H   0  0  0  0  0  0  0  0  0  0  0  0
    0.5287    2.9725    0.5080 H   0  0  0  0  0  0  0  0  0  0  0  0
    1.9836    1.9471    0.5185 H   0  0  0  0  0  0  0  0  0  0  0  0
    0.4239   -2.4366   -0.0025 H   0  0  0  0  0  0  0  0  0  0  0  0
   -2.0277   -2.2206   -0.0182 H   0  0  0  0  0  0  0  0  0  0  0  0
   -3.7432    0.0788    0.8532 H   0  0  0  0  0  0  0  0  0  0  0  0
   -1.6472    2.0360   -0.0136 H   0  0  0  0  0  0  0  0  0  0  0  0
  1  2  1  0  0  0  0
  1 10  1  0  0  0  0
  1 11  1  0  0  0  0
  1 12  1  0  0  0  0
  2  3  2  0  0  0  0
  2  9  1  0  0  0  0
  3  4  1  0  0  0  0
  3  5  1  0  0  0  0
  5  6  2  0  0  0  0
  5 13  1  0  0  0  0
  6  7  1  0  0  0  0
  6 14  1  0  0  0  0
  7  8  1  0  0  0  0
  7  9  2  0  0  0  0
  8 15  1  0  0  0  0
  9 16  1  0  0  0  0
M  END
>  <likely_enzyme_classes>
monooxygenas; methyl hydroxylase; dehalogenase

>  <activity>
-10.7

>  <molID>
mol000053

>  <name>
4-chloro-m-cresol

>  <reference>
Mackay handbook of physical-chemical properties; Mndel (2009); ECHA (2016)

>  <speciation_state_pH7.4>
neutral

>  <substance_type>
chemical substance

>  <smiles>
Cc1cc(O)ccc1Cl

>  <inchi>
InChI=1S/C7H7ClO/c1-5-4-6(9)2-3-7(5)8/h2-4,9H,1H3

>  <inchikey>
CFKMVGJGLGKFKI-UHFFFAOYSA-N

$$$$

emcorina  05091710353D 1   1.00000     0.00000 
CORINA evaluation license 3.49 0066  11.04.2013
 16 16  0  0  0  0  0  0  0  0999 V2000
    2.0726    1.9491   -0.0095 C   0  0  0  0  0  0  0  0  0  0  0  0
    1.1245    0.7777   -0.0096 C   0  0  0  0  0  0  0  0  0  0  0  0
    1.6214   -0.5172   -0.0173 C   0  0  0  0  0  0  0  0  0  0  0  0
    2.9637   -0.7310   -0.0248 O   0  0  0  0  0  0  0  0  0  0  0  0
    0.7465   -1.5941   -0.0169 C   0  0  0  0  0  0  0  0  0  0  0  0
   -0.6171   -1.3748   -0.0088 C   0  0  0  0  0  0  0  0  0  0  0  0
   -1.1110   -0.0821   -0.0016 C   0  0  0  0  0  0  0  0  0  0  0  0
   -2.8253    0.1910    0.0085 Cl  0  0  0  0  0  0  0  0  0  0  0  0
   -0.2402    0.9929    0.0038 C   0  0  0  0  0  0  0  0  0  0  0  0
    2.2962    2.2357   -1.0371 H   0  0  0  0  0  0  0  0  0  0  0  0
    1.6120    2.7893    0.5100 H   0  0  0  0  0  0  0  0  0  0  0  0
    2.9955    1.6695    0.4987 H   0  0  0  0  0  0  0  0  0  0  0  0
    3.3565   -0.7965    0.8565 H   0  0  0  0  0  0  0  0  0  0  0  0
    1.1316   -2.6031   -0.0232 H   0  0  0  0  0  0  0  0  0  0  0  0
   -1.2985   -2.2128   -0.0085 H   0  0  0  0  0  0  0  0  0  0  0  0
   -0.6275    2.0011    0.0094 H   0  0  0  0  0  0  0  0  0  0  0  0
  1  2  1  0  0  0  0
  1 10  1  0  0  0  0
  1 11  1  0  0  0  0
  1 12  1  0  0  0  0
  2  3  2  0  0  0  0
  2  9  1  0  0  0  0
  3  4  1  0  0  0  0
  3  5  1  0  0  0  0
  4 13  1  0  0  0  0
  5  6  2  0  0  0  0
  5 14  1  0  0  0  0
  6  7  1  0  0  0  0
  6 15  1  0  0  0  0
  7  8  1  0  0  0  0
  7  9  2  0  0  0  0
  9 16  1  0  0  0  0
M  END
>  <likely_enzyme_classes>
monooxygenase; methyl hydroxylase; dehalogenase

>  <activity>
-10.5

>  <molID>
mol000054

>  <name>
4-chloro-o-cresol 

>  <reference>
UNEP (1998)

>  <speciation_state_pH7.4>
neutral

>  <substance_type>
chemical substance

>  <smiles>
Cc1cc(Cl)ccc1O

>  <inchi>
InChI=1S/C7H7ClO/c1-5-4-6(8)2-3-7(5)9/h2-4,9H,1H3

>  <inchikey>
RHPUJHQBPORFGV-UHFFFAOYSA-N

$$$$

emcorina  05091710353D 1   1.00000     0.00000 
CORINA evaluation license 3.49 0066  11.04.2013
 13 13  0  0  0  0  0  0  0  0999 V2000
    3.2376   -0.0000   -0.0263 O   0  0  0  0  0  0  0  0  0  0  0  0
    1.8784   -0.0000   -0.0176 C   0  0  0  0  0  0  0  0  0  0  0  0
    1.1839    1.2008   -0.0148 C   0  0  0  0  0  0  0  0  0  0  0  0
   -0.1975    1.1988   -0.0065 C   0  0  0  0  0  0  0  0  0  0  0  0
   -0.8884   -0.0000   -0.0009 C   0  0  0  0  0  0  0  0  0  0  0  0
   -2.6244    0.0000    0.0095 Cl  0  0  0  0  0  0  0  0  0  0  0  0
   -0.1975   -1.1988   -0.0042 C   0  0  0  0  0  0  0  0  0  0  0  0
    1.1839   -1.2009   -0.0174 C   0  0  0  0  0  0  0  0  0  0  0  0
    3.6365    0.0011    0.8546 H   0  0  0  0  0  0  0  0  0  0  0  0
    1.7229    2.1367   -0.0187 H   0  0  0  0  0  0  0  0  0  0  0  0
   -0.7385    2.1335   -0.0039 H   0  0  0  0  0  0  0  0  0  0  0  0
   -0.7385   -2.1335   -0.0002 H   0  0  0  0  0  0  0  0  0  0  0  0
    1.7228   -2.1368   -0.0199 H   0  0  0  0  0  0  0  0  0  0  0  0
  1  2  1  0  0  0  0
  1  9  1  0  0  0  0
  2  3  2  0  0  0  0
  2  8  1  0  0  0  0
  3  4  1  0  0  0  0
  3 10  1  0  0  0  0
  4  5  2  0  0  0  0
  4 11  1  0  0  0  0
  5  6  1  0  0  0  0
  5  7  1  0  0  0  0
  7  8  2  0  0  0  0
  7 12  1  0  0  0  0
  8 13  1  0  0  0  0
M  END
>  <likely_enzyme_classes>
monooxygenase; dehalogenase

>  <activity>
-10.3

>  <molID>
mol000055

>  <name>
4-chlorophenol

>  <reference>
Mackay handbook of physical-chemical properties

>  <speciation_state_pH7.4>
neutral

>  <substance_type>
chemical substance

>  <smiles>
Oc1ccc(Cl)cc1

>  <inchi>
InChI=1S/C6H5ClO/c7-5-1-3-6(8)4-2-5/h1-4,8H

>  <inchikey>
WXNZTHHGJRFXKQ-UHFFFAOYSA-N

$$$$

emcorina  05091710353D 1   1.00000     0.00000 
CORINA evaluation license 3.49 0066  11.04.2013
  9  8  0  0  0  0  0  0  0  0999 V2000
   -1.8307    0.6955   -0.1687 C   0  0  0  0  0  0  0  0  0  0  0  0
   -1.1910   -0.4464    0.4047 O   0  0  0  0  0  0  0  0  0  0  0  0
   -0.0250   -0.8751   -0.3015 C   0  0  0  0  0  0  0  0  0  0  0  0
    1.3358    0.2568    0.0419 Cl  0  0  0  0  0  0  0  0  0  0  0  0
   -1.1349    1.5344   -0.1800 H   0  0  0  0  0  0  0  0  0  0  0  0
   -2.1389    0.4654   -1.1886 H   0  0  0  0  0  0  0  0  0  0  0  0
   -2.7064    0.9577    0.4250 H   0  0  0  0  0  0  0  0  0  0  0  0
    0.2473   -1.8796    0.0226 H   0  0  0  0  0  0  0  0  0  0  0  0
   -0.2305   -0.8820   -1.3720 H   0  0  0  0  0  0  0  0  0  0  0  0
  1  2  1  0  0  0  0
  1  5  1  0  0  0  0
  1  6  1  0  0  0  0
  1  7  1  0  0  0  0
  2  3  1  0  0  0  0
  3  4  1  0  0  0  0
  3  8  1  0  0  0  0
  3  9  1  0  0  0  0
M  END
>  <likely_enzyme_classes>
monooxygenase

>  <activity>
-10.5

>  <molID>
mol000057

>  <name>
chloromethyl methyl ether

>  <reference>
Mackay handbook of physical-chemical properties

>  <speciation_state_pH7.4>
neutral

>  <substance_type>
chemical substance

>  <smiles>
COCCl

>  <inchi>
InChI=1S/C2H5ClO/c1-4-2-3/h2H2,1H3

>  <inchikey>
XJUZRXYOEPSWMB-UHFFFAOYSA-N

$$$$

emcorina  05091710353D 1   1.00000     0.00000 
CORINA evaluation license 3.49 0066  11.04.2013
  6  5  0  0  0  0  0  0  0  0999 V2000
   -0.9474    0.0787    0.0000 Cl  0  0  0  0  0  0  0  0  0  0  0  0
    0.6807   -0.5237   -0.0005 C   0  0  0  0  0  0  0  0  0  0  0  0
    1.6899    0.3141    0.0001 C   0  0  0  0  0  0  0  0  0  0  0  0
    0.8626   -1.5882    0.0032 H   0  0  0  0  0  0  0  0  0  0  0  0
    2.7028   -0.0607   -0.0002 H   0  0  0  0  0  0  0  0  0  0  0  0
    1.5080    1.3786    0.0009 H   0  0  0  0  0  0  0  0  0  0  0  0
  1  2  1  0  0  0  0
  2  3  2  0  0  0  0
  2  4  1  0  0  0  0
  3  5  1  0  0  0  0
  3  6  1  0  0  0  0
M  END
>  <likely_enzyme_classes>
monooxygenase

>  <activity>
-11

>  <molID>
mol000059

>  <name>
vinyl chloride

>  <reference>
Capel and Larson (1995); Howard: Handbook of Environmental Degradation Rates

>  <speciation_state_pH7.4>
neutral

>  <substance_type>
chemical substance

>  <smiles>
C=CCl

>  <inchi>
InChI=1S/C2H3Cl/c1-2-3/h2H,1H2

>  <inchikey>
BZHJMEDXRYGGRV-UHFFFAOYSA-N

$$$$

emcorina  05091710353D 1   1.00000     0.00000 
CORINA evaluation license 3.49 0066  11.04.2013
  9  8  0  0  0  0  0  0  0  0999 V2000
   -2.1945   -0.3721    0.1424 Cl  0  0  0  0  0  0  0  0  0  0  0  0
   -0.8534    0.3238   -0.8415 C   0  0  0  0  0  0  0  0  0  0  0  0
   -0.0000    1.1025   -0.0005 O   0  0  0  0  0  0  0  0  0  0  0  0
    0.8534    0.3246    0.8412 C   0  0  0  0  0  0  0  0  0  0  0  0
    2.1945   -0.3722   -0.1421 Cl  0  0  0  0  0  0  0  0  0  0  0  0
   -0.2784   -0.4837   -1.2947 H   0  0  0  0  0  0  0  0  0  0  0  0
   -1.2687    0.9580   -1.6247 H   0  0  0  0  0  0  0  0  0  0  0  0
    1.2687    0.9595    1.6238 H   0  0  0  0  0  0  0  0  0  0  0  0
    0.2784   -0.4826    1.2952 H   0  0  0  0  0  0  0  0  0  0  0  0
  1  2  1  0  0  0  0
  2  3  1  0  0  0  0
  2  6  1  0  0  0  0
  2  7  1  0  0  0  0
  3  4  1  0  0  0  0
  4  5  1  0  0  0  0
  4  8  1  0  0  0  0
  4  9  1  0  0  0  0
M  END
>  <likely_enzyme_classes>
monooxygenase

>  <activity>
-10.5

>  <molID>
mol000060

>  <name>
bis(chloromethyl)ether

>  <reference>
Mackay handbook of physical-chemical properties

>  <speciation_state_pH7.4>
neutral

>  <substance_type>
chemical substance

>  <smiles>
ClCOCCl

>  <inchi>
InChI=1S/C2H4Cl2O/c3-1-5-2-4/h1-2H2

>  <inchikey>
HRQGCQVOJVTVLU-UHFFFAOYSA-N

$$$$

emcorina  05091710353D 1   1.00000     0.00000 
CORINA evaluation license 3.49 0066  11.04.2013
 19 19  0  0  0  0  0  0  0  0999 V2000
    2.5408   -1.8537   -0.1114 C   0  0  0  0  0  0  0  0  0  0  0  0
    1.1555   -1.2619   -0.0694 C   0  0  0  0  0  0  0  0  0  0  0  0
    0.9913    0.1090   -0.0059 C   0  0  0  0  0  0  0  0  0  0  0  0
   -0.2796    0.6519    0.0326 C   0  0  0  0  0  0  0  0  0  0  0  0
   -1.3859   -0.1762    0.0072 C   0  0  0  0  0  0  0  0  0  0  0  0
   -1.2217   -1.5475   -0.0573 C   0  0  0  0  0  0  0  0  0  0  0  0
    0.0488   -2.0900   -0.1002 C   0  0  0  0  0  0  0  0  0  0  0  0
   -2.7466    0.4050    0.0494 N   0  3  0  0  0  0  0  0  0  0  0  0
   -2.8913    1.6130    0.1066 O   0  5  0  0  0  0  0  0  0  0  0  0
   -3.7215   -0.3247    0.0270 O   0  0  0  0  0  0  0  0  0  0  0  0
    2.1761    0.9958    0.0213 N   0  3  0  0  0  0  0  0  0  0  0  0
    3.1747    0.6594    0.6322 O   0  5  0  0  0  0  0  0  0  0  0  0
    2.1524    2.0620   -0.5672 O   0  0  0  0  0  0  0  0  0  0  0  0
    2.9256   -1.9501    0.9038 H   0  0  0  0  0  0  0  0  0  0  0  0
    2.5018   -2.8370   -0.5801 H   0  0  0  0  0  0  0  0  0  0  0  0
    3.1970   -1.2020   -0.6883 H   0  0  0  0  0  0  0  0  0  0  0  0
   -0.4080    1.7231    0.0829 H   0  0  0  0  0  0  0  0  0  0  0  0
   -2.0861   -2.1945   -0.0767 H   0  0  0  0  0  0  0  0  0  0  0  0
    0.1771   -3.1612   -0.1505 H   0  0  0  0  0  0  0  0  0  0  0  0
  1  2  1  0  0  0  0
  1 14  1  0  0  0  0
  1 15  1  0  0  0  0
  1 16  1  0  0  0  0
  2  3  2  0  0  0  0
  2  7  1  0  0  0  0
  3  4  1  0  0  0  0
  3 11  1  0  0  0  0
  4  5  2  0  0  0  0
  4 17  1  0  0  0  0
  5  6  1  0  0  0  0
  5  8  1  0  0  0  0
  6  7  2  0  0  0  0
  6 18  1  0  0  0  0
  7 19  1  0  0  0  0
  8  9  1  0  0  0  0
  8 10  2  0  0  0  0
 11 12  1  0  0  0  0
 11 13  2  0  0  0  0
M  CHG  4   8   1   9  -1  11   1  12  -1
M  END
>  <likely_enzyme_classes>
dioxygenase; nitroreductase

>  <activity>
-11.2

>  <molID>
mol000062

>  <name>
2,4-dinitrotoluene

>  <reference>
Howard: Handbook of Environmental Degradation Rates

>  <speciation_state_pH7.4>
neutral

>  <substance_type>
chemical substance

>  <smiles>
Cc1ccc([N+](=O)[O-])cc1[N+](=O)[O-]

>  <inchi>
InChI=1S/C7H6N2O4/c1-5-2-3-6(8(10)11)4-7(5)9(12)13/h2-4H,1H3

>  <inchikey>
RMBFBMJGBANMMK-UHFFFAOYSA-N

$$$$

emcorina  05091710353D 1   1.00000     0.00000 
CORINA evaluation license 3.49 0066  11.04.2013
 19 19  0  0  0  0  0  0  0  0999 V2000
    0.0003    1.8416    0.0373 C   0  0  0  0  0  0  0  0  0  0  0  0
    0.0001    0.3349    0.0051 C   0  0  0  0  0  0  0  0  0  0  0  0
    1.1971   -0.3563   -0.0089 C   0  0  0  0  0  0  0  0  0  0  0  0
    1.1969   -1.7383   -0.0385 C   0  0  0  0  0  0  0  0  0  0  0  0
   -0.0004   -2.4291   -0.0537 C   0  0  0  0  0  0  0  0  0  0  0  0
   -1.1974   -1.7379   -0.0388 C   0  0  0  0  0  0  0  0  0  0  0  0
   -1.1972   -0.3560   -0.0048 C   0  0  0  0  0  0  0  0  0  0  0  0
   -2.4790    0.3842    0.0111 N   0  3  0  0  0  0  0  0  0  0  0  0
   -3.5315   -0.2225    0.0990 O   0  5  0  0  0  0  0  0  0  0  0  0
   -2.4812    1.5999   -0.0637 O   0  0  0  0  0  0  0  0  0  0  0  0
    2.4791    0.3834    0.0074 N   0  3  0  0  0  0  0  0  0  0  0  0
    3.5296   -0.2213    0.1268 O   0  5  0  0  0  0  0  0  0  0  0  0
    2.4835    1.5968   -0.0986 O   0  0  0  0  0  0  0  0  0  0  0  0
   -0.0598    2.2268   -0.9806 H   0  0  0  0  0  0  0  0  0  0  0  0
   -0.8580    2.1929    0.6100 H   0  0  0  0  0  0  0  0  0  0  0  0
    0.9189    2.1948    0.5058 H   0  0  0  0  0  0  0  0  0  0  0  0
    2.1321   -2.2784   -0.0501 H   0  0  0  0  0  0  0  0  0  0  0  0
   -0.0006   -3.5089   -0.0775 H   0  0  0  0  0  0  0  0  0  0  0  0
   -2.1328   -2.2776   -0.0510 H   0  0  0  0  0  0  0  0  0  0  0  0
  1  2  1  0  0  0  0
  1 14  1  0  0  0  0
  1 15  1  0  0  0  0
  1 16  1  0  0  0  0
  2  3  2  0  0  0  0
  2  7  1  0  0  0  0
  3  4  1  0  0  0  0
  3 11  1  0  0  0  0
  4  5  2  0  0  0  0
  4 17  1  0  0  0  0
  5  6  1  0  0  0  0
  5 18  1  0  0  0  0
  6  7  2  0  0  0  0
  6 19  1  0  0  0  0
  7  8  1  0  0  0  0
  8  9  1  0  0  0  0
  8 10  2  0  0  0  0
 11 12  1  0  0  0  0
 11 13  2  0  0  0  0
M  CHG  4   8   1   9  -1  11   1  12  -1
M  END
>  <likely_enzyme_classes>
dioxygenase; nitroreductase

>  <activity>
-11.2

>  <molID>
mol000063

>  <name>
2,6-dinitrotoluene

>  <reference>
Howard: Handbook of Environmental Degradation Rates

>  <speciation_state_pH7.4>
neutral

>  <substance_type>
chemical substance

>  <smiles>
Cc1c([N+](=O)[O-])cccc1[N+](=O)[O-]

>  <inchi>
InChI=1S/C7H6N2O4/c1-5-6(8(10)11)3-2-4-7(5)9(12)13/h2-4H,1H3

>  <inchikey>
XTRDKALNCIHHNI-UHFFFAOYSA-N

$$$$

emcorina  05091710353D 1   1.00000     0.00000 
CORINA evaluation license 3.49 0066  11.04.2013
 30 32  0  0  0  0  0  0  0  0999 V2000
    5.5966   -0.3356   -0.1384 C   0  0  0  0  0  0  0  0  0  0  0  0
    4.0903   -0.3772   -0.1568 C   0  0  0  0  0  0  0  0  0  0  0  0
    3.5158   -1.3381   -0.6235 O   0  0  0  0  0  0  0  0  0  0  0  0
    3.3815    0.6533    0.3453 N   0  0  0  0  0  0  0  0  0  0  0  0
    1.9871    0.6593    0.2414 C   0  0  0  0  0  0  0  0  0  0  0  0
    1.2778   -0.5327    0.3315 C   0  0  0  0  0  0  0  0  0  0  0  0
   -0.0959   -0.5259    0.2290 C   0  0  0  0  0  0  0  0  0  0  0  0
   -0.7814    0.6709    0.0352 C   0  0  0  0  0  0  0  0  0  0  0  0
   -0.0647    1.8667   -0.0540 C   0  0  0  0  0  0  0  0  0  0  0  0
    1.3086    1.8578    0.0537 C   0  0  0  0  0  0  0  0  0  0  0  0
   -2.2380    0.3987   -0.0405 C   0  0  0  0  0  0  0  0  0  0  0  0
   -3.3248    1.2555   -0.2236 C   0  0  0  0  0  0  0  0  0  0  0  0
   -4.6061    0.7453   -0.2578 C   0  0  0  0  0  0  0  0  0  0  0  0
   -4.8194   -0.6133   -0.1110 C   0  0  0  0  0  0  0  0  0  0  0  0
   -3.7467   -1.4686    0.0709 C   0  0  0  0  0  0  0  0  0  0  0  0
   -2.4629   -0.9677    0.1060 C   0  0  0  0  0  0  0  0  0  0  0  0
   -1.1203   -1.6328    0.2851 C   0  0  0  0  0  0  0  0  0  0  0  0
    5.9908   -1.2493   -0.5832 H   0  0  0  0  0  0  0  0  0  0  0  0
    5.9433    0.5255   -0.7096 H   0  0  0  0  0  0  0  0  0  0  0  0
    5.9452   -0.2530    0.8911 H   0  0  0  0  0  0  0  0  0  0  0  0
    3.8387    1.3909    0.7786 H   0  0  0  0  0  0  0  0  0  0  0  0
    1.8036   -1.4641    0.4814 H   0  0  0  0  0  0  0  0  0  0  0  0
   -0.5880    2.7994   -0.2043 H   0  0  0  0  0  0  0  0  0  0  0  0
    1.8602    2.7837   -0.0152 H   0  0  0  0  0  0  0  0  0  0  0  0
   -3.1627    2.3172   -0.3380 H   0  0  0  0  0  0  0  0  0  0  0  0
   -5.4460    1.4094   -0.3995 H   0  0  0  0  0  0  0  0  0  0  0  0
   -5.8246   -1.0073   -0.1379 H   0  0  0  0  0  0  0  0  0  0  0  0
   -3.9155   -2.5292    0.1853 H   0  0  0  0  0  0  0  0  0  0  0  0
   -0.9453   -2.3477   -0.5189 H   0  0  0  0  0  0  0  0  0  0  0  0
   -1.0765   -2.1356    1.2513 H   0  0  0  0  0  0  0  0  0  0  0  0
  1  2  1  0  0  0  0
  1 18  1  0  0  0  0
  1 19  1  0  0  0  0
  1 20  1  0  0  0  0
  2  3  2  0  0  0  0
  2  4  1  0  0  0  0
  4  5  1  0  0  0  0
  4 21  1  0  0  0  0
  5  6  2  0  0  0  0
  5 10  1  0  0  0  0
  6  7  1  0  0  0  0
  6 22  1  0  0  0  0
  7  8  2  0  0  0  0
  7 17  1  0  0  0  0
  8  9  1  0  0  0  0
  8 11  1  0  0  0  0
  9 10  2  0  0  0  0
  9 23  1  0  0  0  0
 10 24  1  0  0  0  0
 11 12  2  0  0  0  0
 11 16  1  0  0  0  0
 12 13  1  0  0  0  0
 12 25  1  0  0  0  0
 13 14  2  0  0  0  0
 13 26  1  0  0  0  0
 14 15  1  0  0  0  0
 14 27  1  0  0  0  0
 15 16  2  0  0  0  0
 15 28  1  0  0  0  0
 16 17  1  0  0  0  0
 17 29  1  0  0  0  0
 17 30  1  0  0  0  0
M  END
>  <likely_enzyme_classes>
dioxygenase; amidohydrolase

>  <activity>
-11.1

>  <molID>
mol000064

>  <name>
2-acetamido-fluorene

>  <reference>
Steen and Collete (1989); Book chapter: Biodegradation analysis in water systems (14.3.2), from Environmental Xenobiotics by Richardson M.

>  <speciation_state_pH7.4>
neutral

>  <substance_type>
hepatic carcinogen

>  <smiles>
CC(O)=Nc1ccc2c(c1)Cc1ccccc1-2

>  <inchi>
InChI=1S/C15H13NO/c1-10(17)16-13-6-7-15-12(9-13)8-11-4-2-3-5-14(11)15/h2-7,9H,8H2,1H3,(H,16,17)

>  <inchikey>
CZIHNRWJTSTCEX-UHFFFAOYSA-N

$$$$

emcorina  05091710353D 1   1.00000     0.00000 
CORINA evaluation license 3.49 0066  11.04.2013
 15 15  0  0  0  0  0  0  0  0999 V2000
    3.4920   -0.0000   -0.0247 O   0  0  0  0  0  0  0  0  0  0  0  0
    2.1330   -0.0000   -0.0171 C   0  0  0  0  0  0  0  0  0  0  0  0
    1.4382    1.2008   -0.0145 C   0  0  0  0  0  0  0  0  0  0  0  0
    0.0568    1.1981   -0.0073 C   0  0  0  0  0  0  0  0  0  0  0  0
   -0.6333   -0.0000   -0.0028 C   0  0  0  0  0  0  0  0  0  0  0  0
    0.0568   -1.1981   -0.0054 C   0  0  0  0  0  0  0  0  0  0  0  0
    1.4382   -1.2008   -0.0179 C   0  0  0  0  0  0  0  0  0  0  0  0
   -2.1134    0.0000    0.0054 N   0  3  0  0  0  0  0  0  0  0  0  0
   -2.7224    1.0548    0.0081 O   0  5  0  0  0  0  0  0  0  0  0  0
   -2.7224   -1.0548    0.0094 O   0  0  0  0  0  0  0  0  0  0  0  0
    3.8902    0.0008    0.8565 H   0  0  0  0  0  0  0  0  0  0  0  0
    1.9769    2.1369   -0.0176 H   0  0  0  0  0  0  0  0  0  0  0  0
   -0.4845    2.1326   -0.0049 H   0  0  0  0  0  0  0  0  0  0  0  0
   -0.4846   -2.1326   -0.0015 H   0  0  0  0  0  0  0  0  0  0  0  0
    1.9768   -2.1369   -0.0200 H   0  0  0  0  0  0  0  0  0  0  0  0
  1  2  1  0  0  0  0
  1 11  1  0  0  0  0
  2  3  2  0  0  0  0
  2  7  1  0  0  0  0
  3  4  1  0  0  0  0
  3 12  1  0  0  0  0
  4  5  2  0  0  0  0
  4 13  1  0  0  0  0
  5  6  1  0  0  0  0
  5  8  1  0  0  0  0
  6  7  2  0  0  0  0
  6 14  1  0  0  0  0
  7 15  1  0  0  0  0
  8  9  1  0  0  0  0
  8 10  2  0  0  0  0
M  CHG  2   8   1   9  -1
M  END
>  <likely_enzyme_classes>
dioxygenase; nitroreductase

>  <activity>
-10.2

>  <molID>
mol000065

>  <name>
4-nitrophenol

>  <reference>
Capel and Larson (1995)

>  <speciation_state_pH7.4>
neutral

>  <substance_type>
chemical substance

>  <smiles>
O=[N+]([O-])c1ccc(O)cc1

>  <inchi>
InChI=1S/C6H5NO3/c8-6-3-1-5(2-4-6)7(9)10/h1-4,8H

>  <inchikey>
BTJIUGUIPKRLHP-UHFFFAOYSA-N

$$$$

emcorina  05091710353D 1   1.00000     0.00000 
CORINA evaluation license 3.49 0066  11.04.2013
 14 14  0  0  0  0  0  0  0  0999 V2000
    2.3198    0.0000    0.0006 N   0  0  0  0  0  0  0  0  0  0  0  0
    0.9231    0.0000    0.0009 C   0  0  0  0  0  0  0  0  0  0  0  0
    0.2269    1.2021   -0.0004 C   0  0  0  0  0  0  0  0  0  0  0  0
   -1.1541    1.1985   -0.0006 C   0  0  0  0  0  0  0  0  0  0  0  0
   -1.8440   -0.0000    0.0005 C   0  0  0  0  0  0  0  0  0  0  0  0
   -1.1541   -1.1985    0.0018 C   0  0  0  0  0  0  0  0  0  0  0  0
    0.2269   -1.2021   -0.0033 C   0  0  0  0  0  0  0  0  0  0  0  0
    2.8048    0.8400   -0.0004 H   0  0  0  0  0  0  0  0  0  0  0  0
    2.8048   -0.8400    0.0056 H   0  0  0  0  0  0  0  0  0  0  0  0
    0.7651    2.1385   -0.0008 H   0  0  0  0  0  0  0  0  0  0  0  0
   -1.6959    2.1327   -0.0012 H   0  0  0  0  0  0  0  0  0  0  0  0
   -2.9240   -0.0000    0.0007 H   0  0  0  0  0  0  0  0  0  0  0  0
   -1.6959   -2.1327    0.0026 H   0  0  0  0  0  0  0  0  0  0  0  0
    0.7651   -2.1385   -0.0027 H   0  0  0  0  0  0  0  0  0  0  0  0
  1  2  1  0  0  0  0
  1  8  1  0  0  0  0
  1  9  1  0  0  0  0
  2  3  2  0  0  0  0
  2  7  1  0  0  0  0
  3  4  1  0  0  0  0
  3 10  1  0  0  0  0
  4  5  2  0  0  0  0
  4 11  1  0  0  0  0
  5  6  1  0  0  0  0
  5 12  1  0  0  0  0
  6  7  2  0  0  0  0
  6 13  1  0  0  0  0
  7 14  1  0  0  0  0
M  END
>  <likely_enzyme_classes>
dioxygenase

>  <activity>
-10.5

>  <molID>
mol000066

>  <name>
aniline

>  <reference>
Torang (2003); Paris and Wolfe (1987); Book chapter: Biodegradation analysis in water systems (14.3.2), from Environmental Xenobiotics by Richardson M.

>  <speciation_state_pH7.4>
neutral

>  <substance_type>
chemical substance

>  <smiles>
Nc1ccccc1

>  <inchi>
InChI=1S/C6H7N/c7-6-4-2-1-3-5-6/h1-5H,7H2

>  <inchikey>
PAYRUJLWNCNPSJ-UHFFFAOYSA-N

$$$$

emcorina  05091710353D 1   1.00000     0.00000 
CORINA evaluation license 3.49 0066  11.04.2013
 26 27  0  0  0  0  0  0  0  0999 V2000
   -0.0028   -1.5245    0.2578 O   0  0  0  0  0  0  0  0  0  0  0  0
   -0.4082   -0.4016    0.0286 C   0  0  0  0  0  0  0  0  0  0  0  0
    0.4666    0.5931   -0.2196 N   0  0  0  0  0  0  0  0  0  0  0  0
    1.8412    0.3569   -0.1184 C   0  0  0  0  0  0  0  0  0  0  0  0
    2.3642   -0.8767   -0.4842 C   0  0  0  0  0  0  0  0  0  0  0  0
    3.7223   -1.1066   -0.3835 C   0  0  0  0  0  0  0  0  0  0  0  0
    4.5612   -0.1102    0.0809 C   0  0  0  0  0  0  0  0  0  0  0  0
    4.0436    1.1190    0.4464 C   0  0  0  0  0  0  0  0  0  0  0  0
    2.6872    1.3573    0.3427 C   0  0  0  0  0  0  0  0  0  0  0  0
   -1.8609   -0.1286    0.0162 C   0  0  0  0  0  0  0  0  0  0  0  0
   -2.7698   -1.1579    0.2672 C   0  0  0  0  0  0  0  0  0  0  0  0
   -4.1242   -0.8963    0.2540 C   0  0  0  0  0  0  0  0  0  0  0  0
   -4.5824    0.3829   -0.0073 C   0  0  0  0  0  0  0  0  0  0  0  0
   -3.6868    1.4076   -0.2569 C   0  0  0  0  0  0  0  0  0  0  0  0
   -2.3296    1.1608   -0.2410 C   0  0  0  0  0  0  0  0  0  0  0  0
    0.1427    1.4729   -0.4685 H   0  0  0  0  0  0  0  0  0  0  0  0
    1.7095   -1.6554   -0.8467 H   0  0  0  0  0  0  0  0  0  0  0  0
    4.1295   -2.0657   -0.6675 H   0  0  0  0  0  0  0  0  0  0  0  0
    5.6228   -0.2925    0.1588 H   0  0  0  0  0  0  0  0  0  0  0  0
    4.7014    1.8949    0.8091 H   0  0  0  0  0  0  0  0  0  0  0  0
    2.2836    2.3175    0.6283 H   0  0  0  0  0  0  0  0  0  0  0  0
   -2.4135   -2.1568    0.4709 H   0  0  0  0  0  0  0  0  0  0  0  0
   -4.8286   -1.6918    0.4477 H   0  0  0  0  0  0  0  0  0  0  0  0
   -5.6438    0.5823   -0.0167 H   0  0  0  0  0  0  0  0  0  0  0  0
   -4.0510    2.4038   -0.4601 H   0  0  0  0  0  0  0  0  0  0  0  0
   -1.6316    1.9616   -0.4360 H   0  0  0  0  0  0  0  0  0  0  0  0
  1  2  2  0  0  0  0
  2  3  1  0  0  0  0
  2 10  1  0  0  0  0
  3  4  1  0  0  0  0
  3 16  1  0  0  0  0
  4  5  2  0  0  0  0
  4  9  1  0  0  0  0
  5  6  1  0  0  0  0
  5 17  1  0  0  0  0
  6  7  2  0  0  0  0
  6 18  1  0  0  0  0
  7  8  1  0  0  0  0
  7 19  1  0  0  0  0
  8  9  2  0  0  0  0
  8 20  1  0  0  0  0
  9 21  1  0  0  0  0
 10 11  2  0  0  0  0
 10 15  1  0  0  0  0
 11 12  1  0  0  0  0
 11 22  1  0  0  0  0
 12 13  2  0  0  0  0
 12 23  1  0  0  0  0
 13 14  1  0  0  0  0
 13 24  1  0  0  0  0
 14 15  2  0  0  0  0
 14 25  1  0  0  0  0
 15 26  1  0  0  0  0
M  END
>  <likely_enzyme_classes>
dioxygenase; amidohydrolase

>  <activity>
-11.5

>  <molID>
mol000067

>  <name>
benzanilide

>  <reference>
Steen and Collete (1989); Book chapter: Biodegradation analysis in water systems (14.3.2), from Environmental Xenobiotics by Richardson M.

>  <speciation_state_pH7.4>
neutral

>  <substance_type>
chemical substance

>  <smiles>
OC(=Nc1ccccc1)c1ccccc1

>  <inchi>
InChI=1S/C13H11NO/c15-13(11-7-3-1-4-8-11)14-12-9-5-2-6-10-12/h1-10H,(H,14,15)

>  <inchikey>
ZVSKZLHKADLHSD-UHFFFAOYSA-N

$$$$

emcorina  05091710353D 1   1.00000     0.00000 
CORINA evaluation license 3.49 0066  11.04.2013
 12 12  0  0  0  0  0  0  0  0999 V2000
    0.6748   -1.2064   -0.0002 C   0  0  0  0  0  0  0  0  0  0  0  0
   -0.7074   -1.1876    0.0001 C   0  0  0  0  0  0  0  0  0  0  0  0
   -1.3822    0.0188   -0.0000 C   0  0  0  0  0  0  0  0  0  0  0  0
   -0.6748    1.2064    0.0000 C   0  0  0  0  0  0  0  0  0  0  0  0
    0.7074    1.1876    0.0006 C   0  0  0  0  0  0  0  0  0  0  0  0
    1.3822   -0.0188   -0.0007 C   0  0  0  0  0  0  0  0  0  0  0  0
    1.2020   -2.1490    0.0044 H   0  0  0  0  0  0  0  0  0  0  0  0
   -1.2601   -2.1155    0.0000 H   0  0  0  0  0  0  0  0  0  0  0  0
   -2.4621    0.0335   -0.0005 H   0  0  0  0  0  0  0  0  0  0  0  0
   -1.2020    2.1490   -0.0008 H   0  0  0  0  0  0  0  0  0  0  0  0
    1.2601    2.1155   -0.0001 H   0  0  0  0  0  0  0  0  0  0  0  0
    2.4621   -0.0335    0.0002 H   0  0  0  0  0  0  0  0  0  0  0  0
  1  2  2  0  0  0  0
  1  6  1  0  0  0  0
  1  7  1  0  0  0  0
  2  3  1  0  0  0  0
  2  8  1  0  0  0  0
  3  4  2  0  0  0  0
  3  9  1  0  0  0  0
  4  5  1  0  0  0  0
  4 10  1  0  0  0  0
  5  6  2  0  0  0  0
  5 11  1  0  0  0  0
  6 12  1  0  0  0  0
M  END
>  <likely_enzyme_classes>
dioxygenase

>  <activity>
-10.8

>  <molID>
mol000068

>  <name>
benzene

>  <reference>
Capel and Larson (1995); Vaishnav  and Babeu (1987); Aronson (1999)

>  <speciation_state_pH7.4>
neutral

>  <substance_type>
chemical substance

>  <smiles>
c1ccccc1

>  <inchi>
InChI=1S/C6H6/c1-2-4-6-5-3-1/h1-6H

>  <inchikey>
UHOVQNZJYSORNB-UHFFFAOYSA-N

$$$$

emcorina  05091710353D 1   1.00000     0.00000 
CORINA evaluation license 3.49 0066  11.04.2013
 18 18  0  0  0  0  0  0  0  0999 V2000
    2.7401    0.0009    0.7252 C   0  0  0  0  0  0  0  0  0  0  0  0
    1.9619   -0.0012   -0.5921 C   0  0  0  0  0  0  0  0  0  0  0  0
    0.4831   -0.0005   -0.3020 C   0  0  0  0  0  0  0  0  0  0  0  0
   -0.1950    1.1969   -0.1709 C   0  0  0  0  0  0  0  0  0  0  0  0
   -1.5515    1.1975    0.0952 C   0  0  0  0  0  0  0  0  0  0  0  0
   -2.2299    0.0006    0.2298 C   0  0  0  0  0  0  0  0  0  0  0  0
   -1.5520   -1.1968    0.0978 C   0  0  0  0  0  0  0  0  0  0  0  0
   -0.1963   -1.1974   -0.1727 C   0  0  0  0  0  0  0  0  0  0  0  0
    2.4825    0.8918    1.2979 H   0  0  0  0  0  0  0  0  0  0  0  0
    2.4823   -0.8881    1.3008 H   0  0  0  0  0  0  0  0  0  0  0  0
    3.8097    0.0004    0.5154 H   0  0  0  0  0  0  0  0  0  0  0  0
    2.2197    0.8879   -1.1677 H   0  0  0  0  0  0  0  0  0  0  0  0
    2.2195   -0.8921   -1.1648 H   0  0  0  0  0  0  0  0  0  0  0  0
    0.3351    2.1320   -0.2761 H   0  0  0  0  0  0  0  0  0  0  0  0
   -2.0812    2.1330    0.1983 H   0  0  0  0  0  0  0  0  0  0  0  0
   -3.2896    0.0010    0.4384 H   0  0  0  0  0  0  0  0  0  0  0  0
   -2.0820   -2.1319    0.2032 H   0  0  0  0  0  0  0  0  0  0  0  0
    0.3333   -2.1329   -0.2758 H   0  0  0  0  0  0  0  0  0  0  0  0
  1  2  1  0  0  0  0
  1  9  1  0  0  0  0
  1 10  1  0  0  0  0
  1 11  1  0  0  0  0
  2  3  1  0  0  0  0
  2 12  1  0  0  0  0
  2 13  1  0  0  0  0
  3  4  2  0  0  0  0
  3  8  1  0  0  0  0
  4  5  1  0  0  0  0
  4 14  1  0  0  0  0
  5  6  2  0  0  0  0
  5 15  1  0  0  0  0
  6  7  1  0  0  0  0
  6 16  1  0  0  0  0
  7  8  2  0  0  0  0
  7 17  1  0  0  0  0
  8 18  1  0  0  0  0
M  END
>  <likely_enzyme_classes>
dioxygenase; monooxygenase

>  <activity>
-10.7

>  <molID>
mol000073

>  <name>
ethylbenzene

>  <reference>
Ludzack Ettinger (1963); Aronson (1999)

>  <speciation_state_pH7.4>
neutral

>  <substance_type>
chemical substance

>  <smiles>
CCc1ccccc1

>  <inchi>
InChI=1S/C8H10/c1-2-8-6-4-3-5-7-8/h3-7H,2H2,1H3

>  <inchikey>
YNQLUTRBYVCPMQ-UHFFFAOYSA-N

$$$$

emcorina  05091710353D 1   1.00000     0.00000 
CORINA evaluation license 3.49 0066  11.04.2013
 15 15  0  0  0  0  0  0  0  0999 V2000
    2.3576    1.0677   -0.0012 O   0  0  0  0  0  0  0  0  0  0  0  0
    1.6471   -0.0769   -0.0004 C   0  0  0  0  0  0  0  0  0  0  0  0
    2.2206   -1.1477    0.0004 O   0  0  0  0  0  0  0  0  0  0  0  0
    0.1706   -0.0297   -0.0005 C   0  0  0  0  0  0  0  0  0  0  0  0
   -0.5689   -1.2141    0.0003 C   0  0  0  0  0  0  0  0  0  0  0  0
   -1.9474   -1.1628    0.0001 C   0  0  0  0  0  0  0  0  0  0  0  0
   -2.5974    0.0587   -0.0009 C   0  0  0  0  0  0  0  0  0  0  0  0
   -1.8708    1.2362   -0.0017 C   0  0  0  0  0  0  0  0  0  0  0  0
   -0.4918    1.1995    0.0043 C   0  0  0  0  0  0  0  0  0  0  0  0
    3.3211    0.9863   -0.0011 H   0  0  0  0  0  0  0  0  0  0  0  0
   -0.0628   -2.1682    0.0007 H   0  0  0  0  0  0  0  0  0  0  0  0
   -2.5206   -2.0781    0.0004 H   0  0  0  0  0  0  0  0  0  0  0  0
   -3.6768    0.0932   -0.0014 H   0  0  0  0  0  0  0  0  0  0  0  0
   -2.3844    2.1863   -0.0028 H   0  0  0  0  0  0  0  0  0  0  0  0
    0.0742    2.1193    0.0037 H   0  0  0  0  0  0  0  0  0  0  0  0
  1  2  1  0  0  0  0
  1 10  1  0  0  0  0
  2  3  2  0  0  0  0
  2  4  1  0  0  0  0
  4  5  2  0  0  0  0
  4  9  1  0  0  0  0
  5  6  1  0  0  0  0
  5 11  1  0  0  0  0
  6  7  2  0  0  0  0
  6 12  1  0  0  0  0
  7  8  1  0  0  0  0
  7 13  1  0  0  0  0
  8  9  2  0  0  0  0
  8 14  1  0  0  0  0
  9 15  1  0  0  0  0
M  END
>  <likely_enzyme_classes>
dioxygenase

>  <activity>
-9.6

>  <molID>
mol000075

>  <name>
benzoic acid

>  <reference>
Mackay handbook of physical-chemical properties; Pubchem

>  <speciation_state_pH7.4>
anionic

>  <substance_type>
chemical substance

>  <smiles>
O=C(O)c1ccccc1

>  <inchi>
InChI=1S/C7H6O2/c8-7(9)6-4-2-1-3-5-6/h1-5H,(H,8,9)

>  <inchikey>
WPYMKLBDIGXBTP-UHFFFAOYSA-N

$$$$

emcorina  05091710353D 1   1.00000     0.00000 
CORINA evaluation license 3.49 0066  11.04.2013
 25 25  0  0  0  0  0  0  0  0999 V2000
    2.1085    0.2339   -1.7662 C   0  0  0  0  0  0  0  0  0  0  0  0
    2.3548    0.4520   -0.2720 C   0  0  0  0  0  0  0  0  0  0  0  0
    3.7253    1.1015   -0.0705 C   0  0  0  0  0  0  0  0  0  0  0  0
    1.3399    1.3071    0.2582 O   0  0  0  0  0  0  0  0  0  0  0  0
    0.0553    0.8737    0.1615 C   0  0  0  0  0  0  0  0  0  0  0  0
   -0.9874    1.6970    0.5606 C   0  0  0  0  0  0  0  0  0  0  0  0
   -2.2924    1.2549    0.4610 C   0  0  0  0  0  0  0  0  0  0  0  0
   -2.5598   -0.0082   -0.0364 C   0  0  0  0  0  0  0  0  0  0  0  0
   -4.2005   -0.5616   -0.1606 Cl  0  0  0  0  0  0  0  0  0  0  0  0
   -1.5212   -0.8308   -0.4354 C   0  0  0  0  0  0  0  0  0  0  0  0
   -0.2151   -0.3904   -0.3419 C   0  0  0  0  0  0  0  0  0  0  0  0
    2.3176   -0.8745    0.4422 C   0  0  0  0  0  0  0  0  0  0  0  0
    3.1868   -1.8412    0.1080 O   0  0  0  0  0  0  0  0  0  0  0  0
    1.5054   -1.0678    1.3156 O   0  0  0  0  0  0  0  0  0  0  0  0
    2.7877   -0.5331   -2.1382 H   0  0  0  0  0  0  0  0  0  0  0  0
    1.0783   -0.0866   -1.9216 H   0  0  0  0  0  0  0  0  0  0  0  0
    2.2840    1.1661   -2.3032 H   0  0  0  0  0  0  0  0  0  0  0  0
    3.7277    2.0930   -0.5233 H   0  0  0  0  0  0  0  0  0  0  0  0
    3.9328    1.1887    0.9961 H   0  0  0  0  0  0  0  0  0  0  0  0
    4.4919    0.4855   -0.5406 H   0  0  0  0  0  0  0  0  0  0  0  0
   -0.7790    2.6829    0.9492 H   0  0  0  0  0  0  0  0  0  0  0  0
   -3.1044    1.8955    0.7720 H   0  0  0  0  0  0  0  0  0  0  0  0
   -1.7319   -1.8163   -0.8238 H   0  0  0  0  0  0  0  0  0  0  0  0
    0.5953   -1.0327   -0.6534 H   0  0  0  0  0  0  0  0  0  0  0  0
    3.1244   -2.6749    0.5940 H   0  0  0  0  0  0  0  0  0  0  0  0
  1  2  1  0  0  0  0
  1 15  1  0  0  0  0
  1 16  1  0  0  0  0
  1 17  1  0  0  0  0
  2  3  1  0  0  0  0
  2  4  1  0  0  0  0
  2 12  1  0  0  0  0
  3 18  1  0  0  0  0
  3 19  1  0  0  0  0
  3 20  1  0  0  0  0
  4  5  1  0  0  0  0
  5  6  2  0  0  0  0
  5 11  1  0  0  0  0
  6  7  1  0  0  0  0
  6 21  1  0  0  0  0
  7  8  2  0  0  0  0
  7 22  1  0  0  0  0
  8  9  1  0  0  0  0
  8 10  1  0  0  0  0
 10 11  2  0  0  0  0
 10 23  1  0  0  0  0
 11 24  1  0  0  0  0
 12 13  1  0  0  0  0
 12 14  2  0  0  0  0
 13 25  1  0  0  0  0
M  END
>  <likely_enzyme_classes>
dioxygenase; decarboxylase

>  <activity>
-12

>  <molID>
mol000077

>  <name>
clofibric acid

>  <reference>
Araujo et al. (2014)

>  <speciation_state_pH7.4>
anionic

>  <substance_type>
lipid lowering drug

>  <smiles>
CC(C)(Oc1ccc(Cl)cc1)C(=O)O

>  <inchi>
InChI=1S/C10H11ClO3/c1-10(2,9(12)13)14-8-5-3-7(11)4-6-8/h3-6H,1-2H3,(H,12,13)

>  <inchikey>
TXCGAZHTZHNUAI-UHFFFAOYSA-N

$$$$

emcorina  05091710353D 1   1.00000     0.00000 
CORINA evaluation license 3.49 0066  11.04.2013
 76 79  0  0  0  0  0  0  0  0999 V2000
    0.8356    3.3301    0.5031 C   0  0  0  0  0  0  0  0  0  0  0  0
    0.6238    2.5343   -0.7864 C   0  0  0  0  0  0  0  0  0  0  0  0
    1.6197    3.0075   -1.8471 C   0  0  0  0  0  0  0  0  0  0  0  0
    0.8396    1.0681   -0.5131 C   0  0  0  0  0  0  0  0  0  0  0  0
    1.9987    0.5115   -0.0495 C   0  0  0  0  0  0  0  0  0  0  0  0
    3.2494    1.2172    0.2711 C   0  0  0  0  0  0  0  0  0  0  0  0
    3.4355    1.6452    1.3944 O   0  0  0  0  0  0  0  0  0  0  0  0
    4.1888    1.3893   -0.6799 N   0  0  0  0  0  0  0  0  0  0  0  0
    5.3347    2.1418   -0.4028 C   0  0  0  0  0  0  0  0  0  0  0  0
    5.9065    2.0987    0.8622 C   0  0  0  0  0  0  0  0  0  0  0  0
    7.0383    2.8426    1.1324 C   0  0  0  0  0  0  0  0  0  0  0  0
    7.6022    3.6298    0.1452 C   0  0  0  0  0  0  0  0  0  0  0  0
    7.0353    3.6750   -1.1153 C   0  0  0  0  0  0  0  0  0  0  0  0
    5.9065    2.9294   -1.3936 C   0  0  0  0  0  0  0  0  0  0  0  0
    1.7470   -0.9342    0.0653 C   0  0  0  0  0  0  0  0  0  0  0  0
    0.4412   -1.1226   -0.3448 C   0  0  0  0  0  0  0  0  0  0  0  0
   -0.0808    0.0995   -0.6815 N   0  0  0  0  0  0  0  0  0  0  0  0
   -1.4460    0.3198   -1.1651 C   0  0  0  0  0  0  0  0  0  0  0  0
   -2.3496    0.6940    0.0115 C   0  0  0  0  0  0  0  0  0  0  0  0
   -3.7962    0.8101   -0.4732 C   0  0  0  0  0  0  0  0  0  0  0  0
   -4.2561   -0.4701   -0.9109 O   0  0  0  0  0  0  0  0  0  0  0  0
   -4.6801    1.3049    0.6734 C   0  0  0  0  0  0  0  0  0  0  0  0
   -6.1010    1.5401    0.1571 C   0  0  0  0  0  0  0  0  0  0  0  0
   -6.6720    0.2950   -0.2502 O   0  0  0  0  0  0  0  0  0  0  0  0
   -6.9534    2.1522    1.2705 C   0  0  0  0  0  0  0  0  0  0  0  0
   -8.3163    2.4971    0.7277 C   0  0  0  0  0  0  0  0  0  0  0  0
   -9.2385    3.0499    1.5312 O   0  0  0  0  0  0  0  0  0  0  0  0
   -8.5789    2.2761   -0.4308 O   0  0  0  0  0  0  0  0  0  0  0  0
   -0.2702   -2.4152   -0.4054 C   0  0  0  0  0  0  0  0  0  0  0  0
   -0.3510   -3.2247    0.7298 C   0  0  0  0  0  0  0  0  0  0  0  0
   -1.0171   -4.4306    0.6675 C   0  0  0  0  0  0  0  0  0  0  0  0
   -1.6056   -4.8397   -0.5187 C   0  0  0  0  0  0  0  0  0  0  0  0
   -2.2572   -6.0219   -0.5738 F   0  0  0  0  0  0  0  0  0  0  0  0
   -1.5286   -4.0406   -1.6484 C   0  0  0  0  0  0  0  0  0  0  0  0
   -0.8698   -2.8302   -1.5965 C   0  0  0  0  0  0  0  0  0  0  0  0
    2.6971   -1.9723    0.5249 C   0  0  0  0  0  0  0  0  0  0  0  0
    3.1425   -1.9781    1.8470 C   0  0  0  0  0  0  0  0  0  0  0  0
    4.0277   -2.9485    2.2694 C   0  0  0  0  0  0  0  0  0  0  0  0
    4.4735   -3.9145    1.3849 C   0  0  0  0  0  0  0  0  0  0  0  0
    4.0354   -3.9141    0.0725 C   0  0  0  0  0  0  0  0  0  0  0  0
    3.1462   -2.9522   -0.3607 C   0  0  0  0  0  0  0  0  0  0  0  0
    0.6794    4.3906    0.3054 H   0  0  0  0  0  0  0  0  0  0  0  0
    0.1260    2.9930    1.2587 H   0  0  0  0  0  0  0  0  0  0  0  0
    1.8522    3.1736    0.8638 H   0  0  0  0  0  0  0  0  0  0  0  0
   -0.3929    2.6909   -1.1471 H   0  0  0  0  0  0  0  0  0  0  0  0
    2.6364    2.8510   -1.4864 H   0  0  0  0  0  0  0  0  0  0  0  0
    1.4688    2.4406   -2.7658 H   0  0  0  0  0  0  0  0  0  0  0  0
    1.4636    4.0680   -2.0448 H   0  0  0  0  0  0  0  0  0  0  0  0
    4.0701    0.9914   -1.5565 H   0  0  0  0  0  0  0  0  0  0  0  0
    5.4664    1.4844    1.6337 H   0  0  0  0  0  0  0  0  0  0  0  0
    7.4833    2.8098    2.1159 H   0  0  0  0  0  0  0  0  0  0  0  0
    8.4870    4.2109    0.3591 H   0  0  0  0  0  0  0  0  0  0  0  0
    7.4779    4.2910   -1.8841 H   0  0  0  0  0  0  0  0  0  0  0  0
    5.4644    2.9648   -2.3783 H   0  0  0  0  0  0  0  0  0  0  0  0
   -1.4466    1.1289   -1.8954 H   0  0  0  0  0  0  0  0  0  0  0  0
   -1.8174   -0.5921   -1.6328 H   0  0  0  0  0  0  0  0  0  0  0  0
   -2.2845   -0.0770    0.7792 H   0  0  0  0  0  0  0  0  0  0  0  0
   -2.0280    1.6489    0.4272 H   0  0  0  0  0  0  0  0  0  0  0  0
   -3.8462    1.5168   -1.3016 H   0  0  0  0  0  0  0  0  0  0  0  0
   -4.2392   -1.1502   -0.2236 H   0  0  0  0  0  0  0  0  0  0  0  0
   -4.7006    0.5564    1.4655 H   0  0  0  0  0  0  0  0  0  0  0  0
   -4.2770    2.2385    1.0660 H   0  0  0  0  0  0  0  0  0  0  0  0
   -6.0705    2.2213   -0.6933 H   0  0  0  0  0  0  0  0  0  0  0  0
   -6.7306   -0.3611    0.4577 H   0  0  0  0  0  0  0  0  0  0  0  0
   -7.0575    1.4348    2.0845 H   0  0  0  0  0  0  0  0  0  0  0  0
   -6.4709    3.0561    1.6422 H   0  0  0  0  0  0  0  0  0  0  0  0
  -10.0981    3.2536    1.1379 H   0  0  0  0  0  0  0  0  0  0  0  0
    0.1075   -2.9070    1.6546 H   0  0  0  0  0  0  0  0  0  0  0  0
   -1.0799   -5.0575    1.5446 H   0  0  0  0  0  0  0  0  0  0  0  0
   -1.9888   -4.3646   -2.5701 H   0  0  0  0  0  0  0  0  0  0  0  0
   -0.8104   -2.2083   -2.4774 H   0  0  0  0  0  0  0  0  0  0  0  0
    2.7955   -1.2243    2.5383 H   0  0  0  0  0  0  0  0  0  0  0  0
    4.3736   -2.9539    3.2925 H   0  0  0  0  0  0  0  0  0  0  0  0
    5.1666   -4.6718    1.7202 H   0  0  0  0  0  0  0  0  0  0  0  0
    4.3871   -4.6708   -0.6131 H   0  0  0  0  0  0  0  0  0  0  0  0
    2.8047   -2.9532   -1.3853 H   0  0  0  0  0  0  0  0  0  0  0  0
  1  2  1  0  0  0  0
  1 42  1  0  0  0  0
  1 43  1  0  0  0  0
  1 44  1  0  0  0  0
  2  3  1  0  0  0  0
  2  4  1  0  0  0  0
  2 45  1  0  0  0  0
  3 46  1  0  0  0  0
  3 47  1  0  0  0  0
  3 48  1  0  0  0  0
  4  5  2  0  0  0  0
  4 17  1  0  0  0  0
  5  6  1  0  0  0  0
  5 15  1  0  0  0  0
  6  7  2  0  0  0  0
  6  8  1  0  0  0  0
  8  9  1  0  0  0  0
  8 49  1  0  0  0  0
  9 10  2  0  0  0  0
  9 14  1  0  0  0  0
 10 11  1  0  0  0  0
 10 50  1  0  0  0  0
 11 12  2  0  0  0  0
 11 51  1  0  0  0  0
 12 13  1  0  0  0  0
 12 52  1  0  0  0  0
 13 14  2  0  0  0  0
 13 53  1  0  0  0  0
 14 54  1  0  0  0  0
 15 16  2  0  0  0  0
 15 36  1  0  0  0  0
 16 17  1  0  0  0  0
 16 29  1  0  0  0  0
 17 18  1  0  0  0  0
 18 19  1  0  0  0  0
 18 55  1  0  0  0  0
 18 56  1  0  0  0  0
 19 20  1  0  0  0  0
 19 57  1  0  0  0  0
 19 58  1  0  0  0  0
 20 21  1  0  0  0  0
 20 22  1  0  0  0  0
 20 59  1  0  0  0  0
 21 60  1  0  0  0  0
 22 23  1  0  0  0  0
 22 61  1  0  0  0  0
 22 62  1  0  0  0  0
 23 24  1  0  0  0  0
 23 25  1  0  0  0  0
 23 63  1  0  0  0  0
 24 64  1  0  0  0  0
 25 26  1  0  0  0  0
 25 65  1  0  0  0  0
 25 66  1  0  0  0  0
 26 27  1  0  0  0  0
 26 28  2  0  0  0  0
 27 67  1  0  0  0  0
 29 30  2  0  0  0  0
 29 35  1  0  0  0  0
 30 31  1  0  0  0  0
 30 68  1  0  0  0  0
 31 32  2  0  0  0  0
 31 69  1  0  0  0  0
 32 33  1  0  0  0  0
 32 34  1  0  0  0  0
 34 35  2  0  0  0  0
 34 70  1  0  0  0  0
 35 71  1  0  0  0  0
 36 37  2  0  0  0  0
 36 41  1  0  0  0  0
 37 38  1  0  0  0  0
 37 72  1  0  0  0  0
 38 39  2  0  0  0  0
 38 73  1  0  0  0  0
 39 40  1  0  0  0  0
 39 74  1  0  0  0  0
 40 41  2  0  0  0  0
 40 75  1  0  0  0  0
 41 76  1  0  0  0  0
M  END
>  <likely_enzyme_classes>
amine dehydrogenase; dioxygenase; amidohydrolase

>  <activity>
-11.8

>  <molID>
mol000078

>  <name>
atorvastatin

>  <reference>
Lam et al. (2004)

>  <speciation_state_pH7.4>
anionic

>  <substance_type>
lipid-lowering drug

>  <smiles>
CC(C)c1c(C(O)=Nc2ccccc2)c(-c2ccccc2)c(-c2ccc(F)cc2)n1CC[C@@H](O)C[C@@H](O)CC(=O)O

>  <inchi>
InChI=1S/C33H35FN2O5/c1-21(2)31-30(33(41)35-25-11-7-4-8-12-25)29(22-9-5-3-6-10-22)32(23-13-15-24(34)16-14-23)36(31)18-17-26(37)19-27(38)20-28(39)40/h3-16,21,26-27,37-38H,17-20H2,1-2H3,(H,35,41)(H,39,40)/t26-,27-/m1/s1

>  <inchikey>
XUKUURHRXDUEBC-KAYWLYCHSA-N

$$$$

emcorina  05091710353D 1   1.00000     0.00000 
CORINA evaluation license 3.49 0066  11.04.2013
 26 27  0  0  0  0  0  0  0  0999 V2000
    0.3050   -2.5785   -0.0862 N   0  0  0  0  0  0  0  0  0  0  0  0
   -0.6985   -1.6218   -0.0080 C   0  0  0  0  0  0  0  0  0  0  0  0
   -0.4876   -0.3334   -0.5264 C   0  0  0  0  0  0  0  0  0  0  0  0
   -1.5068    0.6204   -0.4409 C   0  0  0  0  0  0  0  0  0  0  0  0
   -2.7077    0.2916    0.1494 C   0  0  0  0  0  0  0  0  0  0  0  0
   -3.9717    1.4770    0.2539 Cl  0  0  0  0  0  0  0  0  0  0  0  0
   -2.9120   -0.9822    0.6603 C   0  0  0  0  0  0  0  0  0  0  0  0
   -1.9184   -1.9357    0.5784 C   0  0  0  0  0  0  0  0  0  0  0  0
    0.7991    0.0109   -1.1557 C   0  0  0  0  0  0  0  0  0  0  0  0
    0.8814    0.0925   -2.3662 O   0  0  0  0  0  0  0  0  0  0  0  0
    1.9901    0.2572   -0.3157 C   0  0  0  0  0  0  0  0  0  0  0  0
    3.2136    0.5748   -0.9094 C   0  0  0  0  0  0  0  0  0  0  0  0
    4.3210    0.8034   -0.1195 C   0  0  0  0  0  0  0  0  0  0  0  0
    4.2217    0.7187    1.2581 C   0  0  0  0  0  0  0  0  0  0  0  0
    3.0125    0.4040    1.8530 C   0  0  0  0  0  0  0  0  0  0  0  0
    1.8956    0.1791    1.0754 C   0  0  0  0  0  0  0  0  0  0  0  0
    1.1113   -2.3952   -0.5933 H   0  0  0  0  0  0  0  0  0  0  0  0
    0.2013   -3.4284    0.3696 H   0  0  0  0  0  0  0  0  0  0  0  0
   -1.3528    1.6134   -0.8367 H   0  0  0  0  0  0  0  0  0  0  0  0
   -3.8567   -1.2301    1.1214 H   0  0  0  0  0  0  0  0  0  0  0  0
   -2.0859   -2.9249    0.9783 H   0  0  0  0  0  0  0  0  0  0  0  0
    3.2926    0.6408   -1.9844 H   0  0  0  0  0  0  0  0  0  0  0  0
    5.2679    1.0487   -0.5773 H   0  0  0  0  0  0  0  0  0  0  0  0
    5.0919    0.8986    1.8719 H   0  0  0  0  0  0  0  0  0  0  0  0
    2.9421    0.3389    2.9287 H   0  0  0  0  0  0  0  0  0  0  0  0
    0.9525   -0.0661    1.5409 H   0  0  0  0  0  0  0  0  0  0  0  0
  1  2  1  0  0  0  0
  1 17  1  0  0  0  0
  1 18  1  0  0  0  0
  2  3  2  0  0  0  0
  2  8  1  0  0  0  0
  3  4  1  0  0  0  0
  3  9  1  0  0  0  0
  4  5  2  0  0  0  0
  4 19  1  0  0  0  0
  5  6  1  0  0  0  0
  5  7  1  0  0  0  0
  7  8  2  0  0  0  0
  7 20  1  0  0  0  0
  8 21  1  0  0  0  0
  9 10  2  0  0  0  0
  9 11  1  0  0  0  0
 11 12  2  0  0  0  0
 11 16  1  0  0  0  0
 12 13  1  0  0  0  0
 12 22  1  0  0  0  0
 13 14  2  0  0  0  0
 13 23  1  0  0  0  0
 14 15  1  0  0  0  0
 14 24  1  0  0  0  0
 15 16  2  0  0  0  0
 15 25  1  0  0  0  0
 16 26  1  0  0  0  0
M  END
>  <likely_enzyme_classes>
dioxygenase

>  <activity>
-11.4

>  <molID>
mol000080

>  <name>
2-amino-5-chlorobenzophenone

>  <reference>
Tappin et al. (2014)

>  <speciation_state_pH7.4>
neutral

>  <substance_type>
chemical substance

>  <smiles>
Nc1ccc(Cl)cc1C(=O)c1ccccc1

>  <inchi>
InChI=1S/C13H10ClNO/c14-10-6-7-12(15)11(8-10)13(16)9-4-2-1-3-5-9/h1-8H,15H2

>  <inchikey>
ZUWXHHBROGLWNH-UHFFFAOYSA-N

$$$$

emcorina  05091710353D 1   1.00000     0.00000 
CORINA evaluation license 3.49 0066  11.04.2013
 26 27  0  0  0  0  0  0  0  0999 V2000
    4.6649   -1.5323    0.0022 N   0  0  0  0  0  0  0  0  0  0  0  0
    3.3377   -1.0961    0.0013 C   0  0  0  0  0  0  0  0  0  0  0  0
    3.0542    0.2655    0.0002 C   0  0  0  0  0  0  0  0  0  0  0  0
    4.3494    1.4214   -0.0008 Cl  0  0  0  0  0  0  0  0  0  0  0  0
    1.7440    0.6979   -0.0007 C   0  0  0  0  0  0  0  0  0  0  0  0
    0.7047   -0.2311   -0.0004 C   0  0  0  0  0  0  0  0  0  0  0  0
    0.9919   -1.5954    0.0008 C   0  0  0  0  0  0  0  0  0  0  0  0
    2.3026   -2.0234   -0.0041 C   0  0  0  0  0  0  0  0  0  0  0  0
   -0.7047    0.2311   -0.0008 C   0  0  0  0  0  0  0  0  0  0  0  0
   -1.7440   -0.6979   -0.0005 C   0  0  0  0  0  0  0  0  0  0  0  0
   -3.0542   -0.2655   -0.0005 C   0  0  0  0  0  0  0  0  0  0  0  0
   -4.3494   -1.4214    0.0005 Cl  0  0  0  0  0  0  0  0  0  0  0  0
   -3.3377    1.0962   -0.0007 C   0  0  0  0  0  0  0  0  0  0  0  0
   -4.6649    1.5323   -0.0006 N   0  0  0  0  0  0  0  0  0  0  0  0
   -2.3025    2.0234   -0.0005 C   0  0  0  0  0  0  0  0  0  0  0  0
   -0.9919    1.5954    0.0043 C   0  0  0  0  0  0  0  0  0  0  0  0
    5.3879   -0.8857    0.0020 H   0  0  0  0  0  0  0  0  0  0  0  0
    4.8633   -2.4818    0.0071 H   0  0  0  0  0  0  0  0  0  0  0  0
    1.5237    1.7552   -0.0013 H   0  0  0  0  0  0  0  0  0  0  0  0
    0.1880   -2.3167    0.0014 H   0  0  0  0  0  0  0  0  0  0  0  0
    2.5250   -3.0803   -0.0032 H   0  0  0  0  0  0  0  0  0  0  0  0
   -1.5238   -1.7552   -0.0007 H   0  0  0  0  0  0  0  0  0  0  0  0
   -5.3879    0.8857   -0.0004 H   0  0  0  0  0  0  0  0  0  0  0  0
   -4.8633    2.4818   -0.0008 H   0  0  0  0  0  0  0  0  0  0  0  0
   -2.5250    3.0803   -0.0004 H   0  0  0  0  0  0  0  0  0  0  0  0
   -0.1880    2.3167    0.0044 H   0  0  0  0  0  0  0  0  0  0  0  0
  1  2  1  0  0  0  0
  1 17  1  0  0  0  0
  1 18  1  0  0  0  0
  2  3  2  0  0  0  0
  2  8  1  0  0  0  0
  3  4  1  0  0  0  0
  3  5  1  0  0  0  0
  5  6  2  0  0  0  0
  5 19  1  0  0  0  0
  6  7  1  0  0  0  0
  6  9  1  0  0  0  0
  7  8  2  0  0  0  0
  7 20  1  0  0  0  0
  8 21  1  0  0  0  0
  9 10  2  0  0  0  0
  9 16  1  0  0  0  0
 10 11  1  0  0  0  0
 10 22  1  0  0  0  0
 11 12  1  0  0  0  0
 11 13  2  0  0  0  0
 13 14  1  0  0  0  0
 13 15  1  0  0  0  0
 14 23  1  0  0  0  0
 14 24  1  0  0  0  0
 15 16  2  0  0  0  0
 15 25  1  0  0  0  0
 16 26  1  0  0  0  0
M  END
>  <likely_enzyme_classes>
dioxygenase

>  <activity>
-10.5

>  <molID>
mol000081

>  <name>
3,3-dichlorobenzidine

>  <reference>
Capel and Larson (1995); Nyman et al. (1997); Pubchem; WHO (1998)

>  <speciation_state_pH7.4>
neutral

>  <substance_type>
chemical substance

>  <smiles>
Nc1ccc(-c2ccc(N)c(Cl)c2)cc1Cl

>  <inchi>
InChI=1S/C12H10Cl2N2/c13-9-5-7(1-3-11(9)15)8-2-4-12(16)10(14)6-8/h1-6H,15-16H2

>  <inchikey>
HUWXDEQWWKGHRV-UHFFFAOYSA-N

$$$$

emcorina  05091710353D 1   1.00000     0.00000 
CORINA evaluation license 3.49 0066  11.04.2013
 14 14  0  0  0  0  0  0  0  0999 V2000
    3.2922    0.0000    0.0009 N   0  0  0  0  0  0  0  0  0  0  0  0
    1.8947   -0.0000    0.0008 C   0  0  0  0  0  0  0  0  0  0  0  0
    1.1990    1.2021   -0.0005 C   0  0  0  0  0  0  0  0  0  0  0  0
   -0.1821    1.1992   -0.0006 C   0  0  0  0  0  0  0  0  0  0  0  0
   -0.8727    0.0000    0.0007 C   0  0  0  0  0  0  0  0  0  0  0  0
   -2.6087   -0.0000    0.0000 Cl  0  0  0  0  0  0  0  0  0  0  0  0
   -0.1821   -1.1992    0.0020 C   0  0  0  0  0  0  0  0  0  0  0  0
    1.1990   -1.2021   -0.0037 C   0  0  0  0  0  0  0  0  0  0  0  0
    3.7772    0.8400    0.0001 H   0  0  0  0  0  0  0  0  0  0  0  0
    3.7771   -0.8400    0.0059 H   0  0  0  0  0  0  0  0  0  0  0  0
    1.7374    2.1383   -0.0011 H   0  0  0  0  0  0  0  0  0  0  0  0
   -0.7236    2.1336   -0.0012 H   0  0  0  0  0  0  0  0  0  0  0  0
   -0.7236   -2.1336    0.0033 H   0  0  0  0  0  0  0  0  0  0  0  0
    1.7375   -2.1383   -0.0030 H   0  0  0  0  0  0  0  0  0  0  0  0
  1  2  1  0  0  0  0
  1  9  1  0  0  0  0
  1 10  1  0  0  0  0
  2  3  2  0  0  0  0
  2  8  1  0  0  0  0
  3  4  1  0  0  0  0
  3 11  1  0  0  0  0
  4  5  2  0  0  0  0
  4 12  1  0  0  0  0
  5  6  1  0  0  0  0
  5  7  1  0  0  0  0
  7  8  2  0  0  0  0
  7 13  1  0  0  0  0
  8 14  1  0  0  0  0
M  END
>  <likely_enzyme_classes>
dioxygenase

>  <activity>
-11.6

>  <molID>
mol000082

>  <name>
4-chloroaniline (p-chloroaniline)

>  <reference>
Torang (2003)

>  <speciation_state_pH7.4>
neutral

>  <substance_type>
chemical substance

>  <smiles>
Nc1ccc(Cl)cc1

>  <inchi>
InChI=1S/C6H6ClN/c7-5-1-3-6(8)4-2-5/h1-4H,8H2

>  <inchikey>
QSNSCYSYFYORTR-UHFFFAOYSA-N

$$$$

emcorina  05091710353D 1   1.00000     0.00000 
CORINA evaluation license 3.49 0066  11.04.2013
 30 30  0  0  0  0  0  0  0  0999 V2000
    4.5150    1.8193    0.9349 C   0  0  0  0  0  0  0  0  0  0  0  0
    3.3237    1.6938   -0.0169 C   0  0  0  0  0  0  0  0  0  0  0  0
    2.5852    0.4816    0.2891 O   0  0  0  0  0  0  0  0  0  0  0  0
    1.4988    0.2210   -0.4634 C   0  0  0  0  0  0  0  0  0  0  0  0
    1.1771    0.9853   -1.3508 O   0  0  0  0  0  0  0  0  0  0  0  0
    0.6980   -0.9955   -0.2091 C   0  0  0  0  0  0  0  0  0  0  0  0
    1.3083   -2.2466   -0.2006 C   0  0  0  0  0  0  0  0  0  0  0  0
    0.5552   -3.3814    0.0377 C   0  0  0  0  0  0  0  0  0  0  0  0
   -0.8052   -3.2834    0.2681 C   0  0  0  0  0  0  0  0  0  0  0  0
   -1.4287   -2.0493    0.2635 C   0  0  0  0  0  0  0  0  0  0  0  0
   -0.6857   -0.8951    0.0317 C   0  0  0  0  0  0  0  0  0  0  0  0
   -1.3476    0.4269    0.0262 C   0  0  0  0  0  0  0  0  0  0  0  0
   -0.6820    1.4388   -0.0631 O   0  0  0  0  0  0  0  0  0  0  0  0
   -2.6889    0.5090    0.1203 O   0  0  0  0  0  0  0  0  0  0  0  0
   -3.2703    1.8394    0.1086 C   0  0  0  0  0  0  0  0  0  0  0  0
   -4.7922    1.7320    0.2235 C   0  0  0  0  0  0  0  0  0  0  0  0
    4.1556    1.8625    1.9630 H   0  0  0  0  0  0  0  0  0  0  0  0
    5.1687    0.9554    0.8145 H   0  0  0  0  0  0  0  0  0  0  0  0
    5.0693    2.7292    0.7052 H   0  0  0  0  0  0  0  0  0  0  0  0
    2.6699    2.5577    0.1035 H   0  0  0  0  0  0  0  0  0  0  0  0
    3.6830    1.6506   -1.0451 H   0  0  0  0  0  0  0  0  0  0  0  0
    2.3699   -2.3308   -0.3804 H   0  0  0  0  0  0  0  0  0  0  0  0
    1.0320   -4.3505    0.0435 H   0  0  0  0  0  0  0  0  0  0  0  0
   -1.3840   -4.1764    0.4524 H   0  0  0  0  0  0  0  0  0  0  0  0
   -2.4913   -1.9804    0.4439 H   0  0  0  0  0  0  0  0  0  0  0  0
   -2.8820    2.4130    0.9503 H   0  0  0  0  0  0  0  0  0  0  0  0
   -3.0108    2.3412   -0.8236 H   0  0  0  0  0  0  0  0  0  0  0  0
   -5.2286    2.7307    0.2148 H   0  0  0  0  0  0  0  0  0  0  0  0
   -5.1805    1.1584   -0.6181 H   0  0  0  0  0  0  0  0  0  0  0  0
   -5.0516    1.2302    1.1557 H   0  0  0  0  0  0  0  0  0  0  0  0
  1  2  1  0  0  0  0
  1 17  1  0  0  0  0
  1 18  1  0  0  0  0
  1 19  1  0  0  0  0
  2  3  1  0  0  0  0
  2 20  1  0  0  0  0
  2 21  1  0  0  0  0
  3  4  1  0  0  0  0
  4  5  2  0  0  0  0
  4  6  1  0  0  0  0
  6  7  2  0  0  0  0
  6 11  1  0  0  0  0
  7  8  1  0  0  0  0
  7 22  1  0  0  0  0
  8  9  2  0  0  0  0
  8 23  1  0  0  0  0
  9 10  1  0  0  0  0
  9 24  1  0  0  0  0
 10 11  2  0  0  0  0
 10 25  1  0  0  0  0
 11 12  1  0  0  0  0
 12 13  2  0  0  0  0
 12 14  1  0  0  0  0
 14 15  1  0  0  0  0
 15 16  1  0  0  0  0
 15 26  1  0  0  0  0
 15 27  1  0  0  0  0
 16 28  1  0  0  0  0
 16 29  1  0  0  0  0
 16 30  1  0  0  0  0
M  END
>  <likely_enzyme_classes>
esterase

>  <activity>
-9.5

>  <molID>
mol000086

>  <name>
diethyl phthalate

>  <reference>
Mackay handbook of physical-chemical properties; Capel and Larson (1995)

>  <speciation_state_pH7.4>
neutral

>  <substance_type>
chemical substance

>  <smiles>
CCOC(=O)c1ccccc1C(=O)OCC

>  <inchi>
InChI=1S/C12H14O4/c1-3-15-11(13)9-7-5-6-8-10(9)12(14)16-4-2/h5-8H,3-4H2,1-2H3

>  <inchikey>
FLKPEMZONWLCSK-UHFFFAOYSA-N

$$$$

emcorina  05091710353D 1   1.00000     0.00000 
CORINA evaluation license 3.49 0066  11.04.2013
 36 36  0  0  0  0  0  0  0  0999 V2000
    5.2900    2.7831    0.3971 C   0  0  0  0  0  0  0  0  0  0  0  0
    4.5236    1.5142    0.7757 C   0  0  0  0  0  0  0  0  0  0  0  0
    3.3204    1.3482   -0.1547 C   0  0  0  0  0  0  0  0  0  0  0  0
    2.5931    0.1440    0.2047 O   0  0  0  0  0  0  0  0  0  0  0  0
    1.4983   -0.1493   -0.5232 C   0  0  0  0  0  0  0  0  0  0  0  0
    1.1604    0.5808   -1.4330 O   0  0  0  0  0  0  0  0  0  0  0  0
    0.7079   -1.3600   -0.2144 C   0  0  0  0  0  0  0  0  0  0  0  0
    1.3254   -2.6068   -0.1692 C   0  0  0  0  0  0  0  0  0  0  0  0
    0.5821   -3.7362    0.1199 C   0  0  0  0  0  0  0  0  0  0  0  0
   -0.7756   -3.6371    0.3651 C   0  0  0  0  0  0  0  0  0  0  0  0
   -1.4062   -2.4072    0.3245 C   0  0  0  0  0  0  0  0  0  0  0  0
   -0.6730   -1.2583    0.0413 C   0  0  0  0  0  0  0  0  0  0  0  0
   -1.3425    0.0592   -0.0028 C   0  0  0  0  0  0  0  0  0  0  0  0
   -0.6840    1.0707   -0.1375 O   0  0  0  0  0  0  0  0  0  0  0  0
   -2.6828    0.1376    0.1064 O   0  0  0  0  0  0  0  0  0  0  0  0
   -3.2720    1.4637    0.0547 C   0  0  0  0  0  0  0  0  0  0  0  0
   -4.7916    1.3524    0.1939 C   0  0  0  0  0  0  0  0  0  0  0  0
   -5.4124    2.7497    0.1395 C   0  0  0  0  0  0  0  0  0  0  0  0
    5.6358    2.7047   -0.6336 H   0  0  0  0  0  0  0  0  0  0  0  0
    4.6329    3.6473    0.4951 H   0  0  0  0  0  0  0  0  0  0  0  0
    6.1471    2.9013    1.0599 H   0  0  0  0  0  0  0  0  0  0  0  0
    5.1806    0.6500    0.6777 H   0  0  0  0  0  0  0  0  0  0  0  0
    4.1777    1.5926    1.8064 H   0  0  0  0  0  0  0  0  0  0  0  0
    2.6634    2.2124   -0.0567 H   0  0  0  0  0  0  0  0  0  0  0  0
    3.6663    1.2699   -1.1854 H   0  0  0  0  0  0  0  0  0  0  0  0
    2.3850   -2.6919   -0.3602 H   0  0  0  0  0  0  0  0  0  0  0  0
    1.0645   -4.7019    0.1542 H   0  0  0  0  0  0  0  0  0  0  0  0
   -1.3468   -4.5259    0.5892 H   0  0  0  0  0  0  0  0  0  0  0  0
   -2.4667   -2.3375    0.5166 H   0  0  0  0  0  0  0  0  0  0  0  0
   -2.8758    2.0693    0.8698 H   0  0  0  0  0  0  0  0  0  0  0  0
   -3.0278    1.9328   -0.8984 H   0  0  0  0  0  0  0  0  0  0  0  0
   -5.1877    0.7468   -0.6212 H   0  0  0  0  0  0  0  0  0  0  0  0
   -5.0357    0.8833    1.1470 H   0  0  0  0  0  0  0  0  0  0  0  0
   -6.4949    2.6705    0.2387 H   0  0  0  0  0  0  0  0  0  0  0  0
   -5.0162    3.3553    0.9545 H   0  0  0  0  0  0  0  0  0  0  0  0
   -5.1682    3.2189   -0.8137 H   0  0  0  0  0  0  0  0  0  0  0  0
  1  2  1  0  0  0  0
  1 19  1  0  0  0  0
  1 20  1  0  0  0  0
  1 21  1  0  0  0  0
  2  3  1  0  0  0  0
  2 22  1  0  0  0  0
  2 23  1  0  0  0  0
  3  4  1  0  0  0  0
  3 24  1  0  0  0  0
  3 25  1  0  0  0  0
  4  5  1  0  0  0  0
  5  6  2  0  0  0  0
  5  7  1  0  0  0  0
  7  8  2  0  0  0  0
  7 12  1  0  0  0  0
  8  9  1  0  0  0  0
  8 26  1  0  0  0  0
  9 10  2  0  0  0  0
  9 27  1  0  0  0  0
 10 11  1  0  0  0  0
 10 28  1  0  0  0  0
 11 12  2  0  0  0  0
 11 29  1  0  0  0  0
 12 13  1  0  0  0  0
 13 14  2  0  0  0  0
 13 15  1  0  0  0  0
 15 16  1  0  0  0  0
 16 17  1  0  0  0  0
 16 30  1  0  0  0  0
 16 31  1  0  0  0  0
 17 18  1  0  0  0  0
 17 32  1  0  0  0  0
 17 33  1  0  0  0  0
 18 34  1  0  0  0  0
 18 35  1  0  0  0  0
 18 36  1  0  0  0  0
M  END
>  <likely_enzyme_classes>
esterase

>  <activity>
-8.8

>  <molID>
mol000088

>  <name>
di-n-propyl phthalate

>  <reference>
Mackay handbook of physical-chemical properties

>  <speciation_state_pH7.4>
neutral

>  <substance_type>
chemical substance

>  <smiles>
CCCOC(=O)c1ccccc1C(=O)OCCC

>  <inchi>
InChI=1S/C14H18O4/c1-3-9-17-13(15)11-7-5-6-8-12(11)14(16)18-10-4-2/h5-8H,3-4,9-10H2,1-2H3

>  <inchikey>
MQHNKCZKNAJROC-UHFFFAOYSA-N

$$$$

emcorina  05091710353D 1   1.00000     0.00000 
CORINA evaluation license 3.49 0066  11.04.2013
 14 13  0  0  0  0  0  0  0  0999 V2000
    2.6730    0.3517   -0.0001 C   0  0  0  0  0  0  0  0  0  0  0  0
    1.3588   -0.4318    0.0001 C   0  0  0  0  0  0  0  0  0  0  0  0
    0.2420    0.4962   -0.0002 O   0  0  0  0  0  0  0  0  0  0  0  0
   -0.9910   -0.0342    0.0000 C   0  0  0  0  0  0  0  0  0  0  0  0
   -2.1989    0.8669   -0.0003 C   0  0  0  0  0  0  0  0  0  0  0  0
   -1.1325   -1.2342    0.0004 O   0  0  0  0  0  0  0  0  0  0  0  0
    2.7219    0.9794    0.8897 H   0  0  0  0  0  0  0  0  0  0  0  0
    3.5113   -0.3449    0.0001 H   0  0  0  0  0  0  0  0  0  0  0  0
    2.7219    0.9788   -0.8903 H   0  0  0  0  0  0  0  0  0  0  0  0
    1.3099   -1.0595   -0.8896 H   0  0  0  0  0  0  0  0  0  0  0  0
    1.3099   -1.0589    0.8903 H   0  0  0  0  0  0  0  0  0  0  0  0
   -2.4901    1.0838   -1.0280 H   0  0  0  0  0  0  0  0  0  0  0  0
   -3.0223    0.3710    0.5137 H   0  0  0  0  0  0  0  0  0  0  0  0
   -1.9580    1.7977    0.5132 H   0  0  0  0  0  0  0  0  0  0  0  0
  1  2  1  0  0  0  0
  1  7  1  0  0  0  0
  1  8  1  0  0  0  0
  1  9  1  0  0  0  0
  2  3  1  0  0  0  0
  2 10  1  0  0  0  0
  2 11  1  0  0  0  0
  3  4  1  0  0  0  0
  4  5  1  0  0  0  0
  4  6  2  0  0  0  0
  5 12  1  0  0  0  0
  5 13  1  0  0  0  0
  5 14  1  0  0  0  0
M  END
>  <likely_enzyme_classes>
esterase

>  <activity>
-9.6

>  <molID>
mol000089

>  <name>
ethyl acetate

>  <reference>
Mackay handbook of physical-chemical properties; Capel and Larson (1995)

>  <speciation_state_pH7.4>
neutral

>  <substance_type>
chemical substance

>  <smiles>
CCOC(C)=O

>  <inchi>
InChI=1S/C4H8O2/c1-3-6-4(2)5/h3H2,1-2H3

>  <inchikey>
XEKOWRVHYACXOJ-UHFFFAOYSA-N

$$$$

emcorina  05091710353D 1   1.00000     0.00000 
CORINA evaluation license 3.49 0066  11.04.2013
 25 25  0  0  0  0  0  0  0  0999 V2000
    6.2939    1.1420   -0.0005 C   0  0  0  0  0  0  0  0  0  0  0  0
    5.2466    0.0267    0.0001 C   0  0  0  0  0  0  0  0  0  0  0  0
    3.9173    0.6110   -0.0005 O   0  0  0  0  0  0  0  0  0  0  0  0
    2.8782   -0.2386   -0.0001 C   0  0  0  0  0  0  0  0  0  0  0  0
    3.0728   -1.4311    0.0007 O   0  0  0  0  0  0  0  0  0  0  0  0
    1.4687    0.2948   -0.0007 C   0  0  0  0  0  0  0  0  0  0  0  0
    0.5464   -0.7967   -0.0001 O   0  0  0  0  0  0  0  0  0  0  0  0
   -0.7769   -0.4863   -0.0006 C   0  0  0  0  0  0  0  0  0  0  0  0
   -1.7273   -1.4968   -0.0000 C   0  0  0  0  0  0  0  0  0  0  0  0
   -3.0718   -1.1794    0.0000 C   0  0  0  0  0  0  0  0  0  0  0  0
   -3.4707    0.1455   -0.0005 C   0  0  0  0  0  0  0  0  0  0  0  0
   -5.1608    0.5420   -0.0004 Cl  0  0  0  0  0  0  0  0  0  0  0  0
   -2.5243    1.1549   -0.0006 C   0  0  0  0  0  0  0  0  0  0  0  0
   -1.1789    0.8414    0.0042 C   0  0  0  0  0  0  0  0  0  0  0  0
    7.2918    0.7034   -0.0000 H   0  0  0  0  0  0  0  0  0  0  0  0
    6.1682    1.7580   -0.8909 H   0  0  0  0  0  0  0  0  0  0  0  0
    6.1679    1.7593    0.8890 H   0  0  0  0  0  0  0  0  0  0  0  0
    5.3726   -0.5905   -0.8895 H   0  0  0  0  0  0  0  0  0  0  0  0
    5.3723   -0.5893    0.8905 H   0  0  0  0  0  0  0  0  0  0  0  0
    1.3106    0.9046    0.8888 H   0  0  0  0  0  0  0  0  0  0  0  0
    1.3109    0.9033   -0.8912 H   0  0  0  0  0  0  0  0  0  0  0  0
   -1.4163   -2.5311   -0.0000 H   0  0  0  0  0  0  0  0  0  0  0  0
   -3.8120   -1.9658    0.0001 H   0  0  0  0  0  0  0  0  0  0  0  0
   -2.8376    2.1884   -0.0006 H   0  0  0  0  0  0  0  0  0  0  0  0
   -0.4404    1.6295    0.0041 H   0  0  0  0  0  0  0  0  0  0  0  0
  1  2  1  0  0  0  0
  1 15  1  0  0  0  0
  1 16  1  0  0  0  0
  1 17  1  0  0  0  0
  2  3  1  0  0  0  0
  2 18  1  0  0  0  0
  2 19  1  0  0  0  0
  3  4  1  0  0  0  0
  4  5  2  0  0  0  0
  4  6  1  0  0  0  0
  6  7  1  0  0  0  0
  6 20  1  0  0  0  0
  6 21  1  0  0  0  0
  7  8  1  0  0  0  0
  8  9  2  0  0  0  0
  8 14  1  0  0  0  0
  9 10  1  0  0  0  0
  9 22  1  0  0  0  0
 10 11  2  0  0  0  0
 10 23  1  0  0  0  0
 11 12  1  0  0  0  0
 11 13  1  0  0  0  0
 13 14  2  0  0  0  0
 13 24  1  0  0  0  0
 14 25  1  0  0  0  0
M  END
>  <likely_enzyme_classes>
esterase

>  <activity>
-9.5

>  <molID>
mol000091

>  <name>
ethylester of 4-chlorophenoxyacetic acid

>  <reference>
Paris et al. (1984)

>  <speciation_state_pH7.4>
neutral

>  <substance_type>
chemical substance

>  <smiles>
CCOC(=O)COc1ccc(Cl)cc1

>  <inchi>
InChI=1S/C10H11ClO3/c1-2-13-10(12)7-14-9-5-3-8(11)4-6-9/h3-6H,2,7H2,1H3

>  <inchikey>
QULRDJFRGVHKLN-UHFFFAOYSA-N

$$$$

emcorina  05091710353D 1   1.00000     0.00000 
CORINA evaluation license 3.49 0066  11.04.2013
 15 14  0  0  0  0  0  0  0  0999 V2000
    2.5443   -0.3121   -0.0000 C   0  0  0  0  0  0  0  0  0  0  0  0
    1.1483   -0.7116   -0.0000 O   0  0  0  0  0  0  0  0  0  0  0  0
    0.2296    0.2748   -0.0000 C   0  0  0  0  0  0  0  0  0  0  0  0
    0.5856    1.4368    0.0000 O   0  0  0  0  0  0  0  0  0  0  0  0
   -1.2025   -0.0550   -0.0000 C   0  0  0  0  0  0  0  0  0  0  0  0
   -1.6439   -1.4959   -0.0000 C   0  0  0  0  0  0  0  0  0  0  0  0
   -2.1095    0.9189   -0.0000 C   0  0  0  0  0  0  0  0  0  0  0  0
    2.7523    0.2818    0.8900 H   0  0  0  0  0  0  0  0  0  0  0  0
    3.1763   -1.2002    0.0000 H   0  0  0  0  0  0  0  0  0  0  0  0
    2.7523    0.2818   -0.8900 H   0  0  0  0  0  0  0  0  0  0  0  0
   -1.2590   -1.9938    0.8900 H   0  0  0  0  0  0  0  0  0  0  0  0
   -2.7329   -1.5422    0.0000 H   0  0  0  0  0  0  0  0  0  0  0  0
   -1.2590   -1.9938   -0.8900 H   0  0  0  0  0  0  0  0  0  0  0  0
   -3.1620    0.6765    0.0000 H   0  0  0  0  0  0  0  0  0  0  0  0
   -1.7932    1.9515   -0.0000 H   0  0  0  0  0  0  0  0  0  0  0  0
  1  2  1  0  0  0  0
  1  8  1  0  0  0  0
  1  9  1  0  0  0  0
  1 10  1  0  0  0  0
  2  3  1  0  0  0  0
  3  4  2  0  0  0  0
  3  5  1  0  0  0  0
  5  6  1  0  0  0  0
  5  7  2  0  0  0  0
  6 11  1  0  0  0  0
  6 12  1  0  0  0  0
  6 13  1  0  0  0  0
  7 14  1  0  0  0  0
  7 15  1  0  0  0  0
M  END
>  <likely_enzyme_classes>
esterase; alkene monooxygenase; hydrolase

>  <activity>
-10.5

>  <molID>
mol000093

>  <name>
methyl methacrylate

>  <reference>
Mackay handbook of physical-chemical properties

>  <speciation_state_pH7.4>
neutral

>  <substance_type>
chemical substance

>  <smiles>
C=C(C)C(=O)OC

>  <inchi>
InChI=1S/C5H8O2/c1-4(2)5(6)7-3/h1H2,2-3H3

>  <inchikey>
VVQNEPGJFQJSBK-UHFFFAOYSA-N

$$$$

emcorina  05091710353D 1   1.00000     0.00000 
CORINA evaluation license 3.49 0066  11.04.2013
 23 22  0  0  0  0  0  0  0  0999 V2000
    4.6934   -0.3479   -0.0000 C   0  0  0  0  0  0  0  0  0  0  0  0
    3.4516    0.5460   -0.0000 C   0  0  0  0  0  0  0  0  0  0  0  0
    2.1950   -0.3268   -0.0000 C   0  0  0  0  0  0  0  0  0  0  0  0
    0.9532    0.5671   -0.0000 C   0  0  0  0  0  0  0  0  0  0  0  0
   -0.3034   -0.3056    0.0000 C   0  0  0  0  0  0  0  0  0  0  0  0
   -1.4818    0.5427    0.0000 O   0  0  0  0  0  0  0  0  0  0  0  0
   -2.6752   -0.0719    0.0000 C   0  0  0  0  0  0  0  0  0  0  0  0
   -3.9426    0.7434    0.0000 C   0  0  0  0  0  0  0  0  0  0  0  0
   -2.7331   -1.2788    0.0000 O   0  0  0  0  0  0  0  0  0  0  0  0
    4.6880   -0.9772    0.8900 H   0  0  0  0  0  0  0  0  0  0  0  0
    4.6880   -0.9772   -0.8900 H   0  0  0  0  0  0  0  0  0  0  0  0
    5.5886    0.2738   -0.0000 H   0  0  0  0  0  0  0  0  0  0  0  0
    3.4570    1.1753    0.8900 H   0  0  0  0  0  0  0  0  0  0  0  0
    3.4570    1.1753   -0.8900 H   0  0  0  0  0  0  0  0  0  0  0  0
    2.1896   -0.9561   -0.8900 H   0  0  0  0  0  0  0  0  0  0  0  0
    2.1896   -0.9561    0.8900 H   0  0  0  0  0  0  0  0  0  0  0  0
    0.9586    1.1964    0.8900 H   0  0  0  0  0  0  0  0  0  0  0  0
    0.9586    1.1964   -0.8900 H   0  0  0  0  0  0  0  0  0  0  0  0
   -0.3088   -0.9349   -0.8900 H   0  0  0  0  0  0  0  0  0  0  0  0
   -0.3088   -0.9349    0.8900 H   0  0  0  0  0  0  0  0  0  0  0  0
   -4.2482    0.9399   -1.0277 H   0  0  0  0  0  0  0  0  0  0  0  0
   -4.7296    0.1914    0.5138 H   0  0  0  0  0  0  0  0  0  0  0  0
   -3.7667    1.6884    0.5138 H   0  0  0  0  0  0  0  0  0  0  0  0
  1  2  1  0  0  0  0
  1 10  1  0  0  0  0
  1 11  1  0  0  0  0
  1 12  1  0  0  0  0
  2  3  1  0  0  0  0
  2 13  1  0  0  0  0
  2 14  1  0  0  0  0
  3  4  1  0  0  0  0
  3 15  1  0  0  0  0
  3 16  1  0  0  0  0
  4  5  1  0  0  0  0
  4 17  1  0  0  0  0
  4 18  1  0  0  0  0
  5  6  1  0  0  0  0
  5 19  1  0  0  0  0
  5 20  1  0  0  0  0
  6  7  1  0  0  0  0
  7  8  1  0  0  0  0
  7  9  2  0  0  0  0
  8 21  1  0  0  0  0
  8 22  1  0  0  0  0
  8 23  1  0  0  0  0
M  END
>  <likely_enzyme_classes>
esterase

>  <activity>
-10.5

>  <molID>
mol000094

>  <name>
pentyl acetate

>  <reference>
Mackay handbook of physical-chemical properties

>  <speciation_state_pH7.4>
neutral

>  <substance_type>
chemical substance

>  <smiles>
CCCCCOC(C)=O

>  <inchi>
InChI=1S/C7H14O2/c1-3-4-5-6-9-7(2)8/h3-6H2,1-2H3

>  <inchikey>
PGMYKACGEOXYJE-UHFFFAOYSA-N

$$$$

emcorina  05091710353D 1   1.00000     0.00000 
CORINA evaluation license 3.49 0066  11.04.2013
 21 21  0  0  0  0  0  0  0  0999 V2000
    3.5165    0.5878    0.0965 C   0  0  0  0  0  0  0  0  0  0  0  0
    2.0426    0.5986   -0.2177 C   0  0  0  0  0  0  0  0  0  0  0  0
    1.6700    0.6134   -1.3670 O   0  0  0  0  0  0  0  0  0  0  0  0
    1.1433    0.5918    0.7798 O   0  0  0  0  0  0  0  0  0  0  0  0
   -0.1633    0.7086    0.4321 C   0  0  0  0  0  0  0  0  0  0  0  0
   -0.7665    1.9564    0.4005 C   0  0  0  0  0  0  0  0  0  0  0  0
   -2.0963    2.0739    0.0460 C   0  0  0  0  0  0  0  0  0  0  0  0
   -2.8367    0.9497   -0.2797 C   0  0  0  0  0  0  0  0  0  0  0  0
   -2.2534   -0.2988   -0.2532 C   0  0  0  0  0  0  0  0  0  0  0  0
   -0.9077   -0.4315    0.0976 C   0  0  0  0  0  0  0  0  0  0  0  0
   -0.2771   -1.7640    0.1280 C   0  0  0  0  0  0  0  0  0  0  0  0
   -0.9992   -2.8583   -0.1830 O   0  0  0  0  0  0  0  0  0  0  0  0
    0.8936   -1.8753    0.4335 O   0  0  0  0  0  0  0  0  0  0  0  0
    4.0862    0.5955   -0.8327 H   0  0  0  0  0  0  0  0  0  0  0  0
    3.7690    1.4700    0.6848 H   0  0  0  0  0  0  0  0  0  0  0  0
    3.7603   -0.3098    0.6648 H   0  0  0  0  0  0  0  0  0  0  0  0
   -0.1960    2.8377    0.6538 H   0  0  0  0  0  0  0  0  0  0  0  0
   -2.5616    3.0483    0.0229 H   0  0  0  0  0  0  0  0  0  0  0  0
   -3.8760    1.0518   -0.5552 H   0  0  0  0  0  0  0  0  0  0  0  0
   -2.8346   -1.1728   -0.5075 H   0  0  0  0  0  0  0  0  0  0  0  0
   -0.5424   -3.7099   -0.1490 H   0  0  0  0  0  0  0  0  0  0  0  0
  1  2  1  0  0  0  0
  1 14  1  0  0  0  0
  1 15  1  0  0  0  0
  1 16  1  0  0  0  0
  2  3  2  0  0  0  0
  2  4  1  0  0  0  0
  4  5  1  0  0  0  0
  5  6  2  0  0  0  0
  5 10  1  0  0  0  0
  6  7  1  0  0  0  0
  6 17  1  0  0  0  0
  7  8  2  0  0  0  0
  7 18  1  0  0  0  0
  8  9  1  0  0  0  0
  8 19  1  0  0  0  0
  9 10  2  0  0  0  0
  9 20  1  0  0  0  0
 10 11  1  0  0  0  0
 11 12  1  0  0  0  0
 11 13  2  0  0  0  0
 12 21  1  0  0  0  0
M  END
>  <likely_enzyme_classes>
esterase

>  <activity>
-10.5

>  <molID>
mol000097

>  <name>
aspirin

>  <reference>
European Chemicals Bureau

>  <speciation_state_pH7.4>
anionic

>  <substance_type>
nonsteroidal anti-inflammatory drug

>  <smiles>
CC(=O)Oc1ccccc1C(=O)O

>  <inchi>
InChI=1S/C9H8O4/c1-6(10)13-8-5-3-2-4-7(8)9(11)12/h2-5H,1H3,(H,11,12)

>  <inchikey>
BSYNRYMUTXBXSQ-UHFFFAOYSA-N

$$$$

emcorina  05091710353D 1   1.00000     0.00000 
CORINA evaluation license 3.49 0066  11.04.2013
 25 25  0  0  0  0  0  0  0  0999 V2000
    6.5303   -1.2770    0.0010 C   0  0  0  0  0  0  0  0  0  0  0  0
    5.4319   -0.2120    0.0001 C   0  0  0  0  0  0  0  0  0  0  0  0
    4.1315   -0.8578    0.0009 O   0  0  0  0  0  0  0  0  0  0  0  0
    3.0537   -0.0578    0.0003 C   0  0  0  0  0  0  0  0  0  0  0  0
    3.1923    1.1425   -0.0010 O   0  0  0  0  0  0  0  0  0  0  0  0
    1.6708   -0.6566    0.0011 C   0  0  0  0  0  0  0  0  0  0  0  0
    0.6983    0.3905    0.0002 O   0  0  0  0  0  0  0  0  0  0  0  0
   -0.6092    0.0185    0.0007 C   0  0  0  0  0  0  0  0  0  0  0  0
   -1.6065    0.9839   -0.0001 C   0  0  0  0  0  0  0  0  0  0  0  0
   -1.1854    2.6681   -0.0018 Cl  0  0  0  0  0  0  0  0  0  0  0  0
   -2.9356    0.6030    0.0000 C   0  0  0  0  0  0  0  0  0  0  0  0
   -3.2711   -0.7392    0.0009 C   0  0  0  0  0  0  0  0  0  0  0  0
   -4.9406   -1.2152    0.0011 Cl  0  0  0  0  0  0  0  0  0  0  0  0
   -2.2779   -1.7027    0.0013 C   0  0  0  0  0  0  0  0  0  0  0  0
   -0.9486   -1.3263   -0.0036 C   0  0  0  0  0  0  0  0  0  0  0  0
    6.4336   -1.8979    0.8916 H   0  0  0  0  0  0  0  0  0  0  0  0
    6.4334   -1.8997   -0.8883 H   0  0  0  0  0  0  0  0  0  0  0  0
    7.5066   -0.7922    0.0003 H   0  0  0  0  0  0  0  0  0  0  0  0
    5.5289    0.4108    0.8894 H   0  0  0  0  0  0  0  0  0  0  0  0
    5.5286    0.4089   -0.8906 H   0  0  0  0  0  0  0  0  0  0  0  0
    1.5414   -1.2734   -0.8883 H   0  0  0  0  0  0  0  0  0  0  0  0
    1.5416   -1.2716    0.8917 H   0  0  0  0  0  0  0  0  0  0  0  0
   -3.7122    1.3535   -0.0003 H   0  0  0  0  0  0  0  0  0  0  0  0
   -2.5421   -2.7498    0.0017 H   0  0  0  0  0  0  0  0  0  0  0  0
   -0.1741   -2.0790   -0.0033 H   0  0  0  0  0  0  0  0  0  0  0  0
  1  2  1  0  0  0  0
  1 16  1  0  0  0  0
  1 17  1  0  0  0  0
  1 18  1  0  0  0  0
  2  3  1  0  0  0  0
  2 19  1  0  0  0  0
  2 20  1  0  0  0  0
  3  4  1  0  0  0  0
  4  5  2  0  0  0  0
  4  6  1  0  0  0  0
  6  7  1  0  0  0  0
  6 21  1  0  0  0  0
  6 22  1  0  0  0  0
  7  8  1  0  0  0  0
  8  9  2  0  0  0  0
  8 15  1  0  0  0  0
  9 10  1  0  0  0  0
  9 11  1  0  0  0  0
 11 12  2  0  0  0  0
 11 23  1  0  0  0  0
 12 13  1  0  0  0  0
 12 14  1  0  0  0  0
 14 15  2  0  0  0  0
 14 24  1  0  0  0  0
 15 25  1  0  0  0  0
M  END
>  <likely_enzyme_classes>
esterase

>  <activity>
-9.3

>  <molID>
mol000098

>  <name>
2,4-D ethylester

>  <reference>
Paris et al. (1984); Book chapter: Biodegradation analysis in water systems (14.3.2), from Environmental Xenobiotics by Richardson M.

>  <speciation_state_pH7.4>
neutral

>  <substance_type>
chemical substance

>  <smiles>
CCOC(=O)COc1ccc(Cl)cc1Cl

>  <inchi>
InChI=1S/C10H10Cl2O3/c1-2-14-10(13)6-15-9-4-3-7(11)5-8(9)12/h3-5H,2,6H2,1H3

>  <inchikey>
JSLBZIVMVVHMDJ-UHFFFAOYSA-N

$$$$

emcorina  05091710353D 1   1.00000     0.00000 
CORINA evaluation license 3.49 0066  11.04.2013
 22 22  0  0  0  0  0  0  0  0999 V2000
    5.7908    0.7061   -0.0000 C   0  0  0  0  0  0  0  0  0  0  0  0
    4.4477    1.2579   -0.0005 O   0  0  0  0  0  0  0  0  0  0  0  0
    3.4295    0.3832   -0.0003 C   0  0  0  0  0  0  0  0  0  0  0  0
    3.6531   -0.8042    0.0003 O   0  0  0  0  0  0  0  0  0  0  0  0
    2.0075    0.8822   -0.0008 C   0  0  0  0  0  0  0  0  0  0  0  0
    1.1119   -0.2313   -0.0004 O   0  0  0  0  0  0  0  0  0  0  0  0
   -0.2187    0.0469   -0.0008 C   0  0  0  0  0  0  0  0  0  0  0  0
   -1.1449   -0.9870   -0.0004 C   0  0  0  0  0  0  0  0  0  0  0  0
   -0.6052   -2.6370    0.0004 Cl  0  0  0  0  0  0  0  0  0  0  0  0
   -2.4977   -0.7015   -0.0003 C   0  0  0  0  0  0  0  0  0  0  0  0
   -2.9277    0.6134   -0.0006 C   0  0  0  0  0  0  0  0  0  0  0  0
   -4.6268    0.9696   -0.0004 Cl  0  0  0  0  0  0  0  0  0  0  0  0
   -2.0055    1.6451   -0.0004 C   0  0  0  0  0  0  0  0  0  0  0  0
   -0.6528    1.3642    0.0043 C   0  0  0  0  0  0  0  0  0  0  0  0
    5.9314    0.0931    0.8903 H   0  0  0  0  0  0  0  0  0  0  0  0
    5.9317    0.0923   -0.8897 H   0  0  0  0  0  0  0  0  0  0  0  0
    6.5174    1.5185   -0.0003 H   0  0  0  0  0  0  0  0  0  0  0  0
    1.8347    1.4878    0.8889 H   0  0  0  0  0  0  0  0  0  0  0  0
    1.8350    1.4870   -0.8911 H   0  0  0  0  0  0  0  0  0  0  0  0
   -3.2190   -1.5053   -0.0004 H   0  0  0  0  0  0  0  0  0  0  0  0
   -2.3435    2.6708   -0.0002 H   0  0  0  0  0  0  0  0  0  0  0  0
    0.0663    2.1699    0.0044 H   0  0  0  0  0  0  0  0  0  0  0  0
  1  2  1  0  0  0  0
  1 15  1  0  0  0  0
  1 16  1  0  0  0  0
  1 17  1  0  0  0  0
  2  3  1  0  0  0  0
  3  4  2  0  0  0  0
  3  5  1  0  0  0  0
  5  6  1  0  0  0  0
  5 18  1  0  0  0  0
  5 19  1  0  0  0  0
  6  7  1  0  0  0  0
  7  8  2  0  0  0  0
  7 14  1  0  0  0  0
  8  9  1  0  0  0  0
  8 10  1  0  0  0  0
 10 11  2  0  0  0  0
 10 20  1  0  0  0  0
 11 12  1  0  0  0  0
 11 13  1  0  0  0  0
 13 14  2  0  0  0  0
 13 21  1  0  0  0  0
 14 22  1  0  0  0  0
M  END
>  <likely_enzyme_classes>
esterase

>  <activity>
-9.2

>  <molID>
mol000099

>  <name>
2,4-D methylester

>  <reference>
Paris et al. (1984); Book chapter: Biodegradation analysis in water systems (14.3.2), from Environmental Xenobiotics by Richardson M.

>  <speciation_state_pH7.4>
neutral

>  <substance_type>
chemical substance

>  <smiles>
COC(=O)COc1ccc(Cl)cc1Cl

>  <inchi>
InChI=1S/C9H8Cl2O3/c1-13-9(12)5-14-8-3-2-6(10)4-7(8)11/h2-4H,5H2,1H3

>  <inchikey>
HWIGZMADSFQMOI-UHFFFAOYSA-N

$$$$

emcorina  05091710353D 1   1.00000     0.00000 
CORINA evaluation license 3.49 0066  11.04.2013
  8  7  0  0  0  0  0  0  0  0999 V2000
   -1.8700   -0.0000    0.3500 Cl  0  0  0  0  0  0  0  0  0  0  0  0
   -0.8583    0.0000   -1.1424 C   0  0  0  0  0  0  0  0  0  0  0  0
    0.6219    0.0000   -0.7552 C   0  0  0  0  0  0  0  0  0  0  0  0
    0.9882    1.4721    0.2193 Cl  0  0  0  0  0  0  0  0  0  0  0  0
    0.9882   -1.4721    0.2192 Cl  0  0  0  0  0  0  0  0  0  0  0  0
   -1.0797   -0.8900   -1.7315 H   0  0  0  0  0  0  0  0  0  0  0  0
   -1.0797    0.8900   -1.7315 H   0  0  0  0  0  0  0  0  0  0  0  0
    1.2335    0.0000   -1.6574 H   0  0  0  0  0  0  0  0  0  0  0  0
  1  2  1  0  0  0  0
  2  3  1  0  0  0  0
  2  6  1  0  0  0  0
  2  7  1  0  0  0  0
  3  4  1  0  0  0  0
  3  5  1  0  0  0  0
  3  8  1  0  0  0  0
M  END
>  <likely_enzyme_classes>
dehalogenase

>  <activity>
-11.6

>  <molID>
mol000101

>  <name>
1,1,2-trichloroethane

>  <reference>
Capel and Larson (1995)

>  <speciation_state_pH7.4>
neutral

>  <substance_type>
chemical substance

>  <smiles>
ClCC(Cl)Cl

>  <inchi>
InChI=1S/C2H3Cl3/c3-1-2(4)5/h2H,1H2

>  <inchikey>
UBOXGVDOUJQMTN-UHFFFAOYSA-N

$$$$

emcorina  05091710353D 1   1.00000     0.00000 
CORINA evaluation license 3.49 0066  11.04.2013
  8  7  0  0  0  0  0  0  0  0999 V2000
   -2.1800    0.0553   -0.0000 Cl  0  0  0  0  0  0  0  0  0  0  0  0
   -0.4942   -0.5840    0.0000 C   0  0  0  0  0  0  0  0  0  0  0  0
    0.4942    0.5840   -0.0000 C   0  0  0  0  0  0  0  0  0  0  0  0
    2.1800   -0.0553   -0.0000 Cl  0  0  0  0  0  0  0  0  0  0  0  0
   -0.3366   -1.1932    0.8900 H   0  0  0  0  0  0  0  0  0  0  0  0
   -0.3366   -1.1933   -0.8900 H   0  0  0  0  0  0  0  0  0  0  0  0
    0.3366    1.1932   -0.8900 H   0  0  0  0  0  0  0  0  0  0  0  0
    0.3366    1.1933    0.8900 H   0  0  0  0  0  0  0  0  0  0  0  0
  1  2  1  0  0  0  0
  2  3  1  0  0  0  0
  2  5  1  0  0  0  0
  2  6  1  0  0  0  0
  3  4  1  0  0  0  0
  3  7  1  0  0  0  0
  3  8  1  0  0  0  0
M  END
>  <likely_enzyme_classes>
dehalogenase

>  <activity>
-11.4

>  <molID>
mol000102

>  <name>
1,2-dichloroethane

>  <reference>
Capel and Larson (1995)

>  <speciation_state_pH7.4>
neutral

>  <substance_type>
chemical substance

>  <smiles>
ClCCCl

>  <inchi>
InChI=1S/C2H4Cl2/c3-1-2-4/h1-2H2

>  <inchikey>
WSLDOOZREJYCGB-UHFFFAOYSA-N

$$$$

emcorina  05091710353D 1   1.00000     0.00000 
CORINA evaluation license 3.49 0066  11.04.2013
 28 28  0  0  0  0  0  0  0  0999 V2000
    5.0303   -1.6214    0.1062 C   0  0  0  0  0  0  0  0  0  0  0  0
    3.8686   -0.6269    0.0574 C   0  0  0  0  0  0  0  0  0  0  0  0
    2.5998   -1.3588    0.0358 N   0  0  0  0  0  0  0  0  0  0  0  0
    1.4057   -0.6684   -0.0085 C   0  0  0  0  0  0  0  0  0  0  0  0
    0.2546   -1.3315   -0.0282 N   0  0  0  0  0  0  0  0  0  0  0  0
   -0.8932   -0.6632   -0.0709 C   0  0  0  0  0  0  0  0  0  0  0  0
   -2.0910   -1.3481   -0.0910 N   0  0  0  0  0  0  0  0  0  0  0  0
   -3.3559   -0.6106   -0.1381 C   0  0  0  0  0  0  0  0  0  0  0  0
   -4.4384   -1.4940   -0.7615 C   0  0  0  0  0  0  0  0  0  0  0  0
   -3.7715   -0.2197    1.2815 C   0  0  0  0  0  0  0  0  0  0  0  0
   -0.8863    0.6673   -0.0940 N   0  0  0  0  0  0  0  0  0  0  0  0
    0.2618    1.3247   -0.0743 C   0  0  0  0  0  0  0  0  0  0  0  0
    0.2664    3.0605   -0.1039 Cl  0  0  0  0  0  0  0  0  0  0  0  0
    1.4058    0.6624   -0.0262 N   0  0  0  0  0  0  0  0  0  0  0  0
    5.9744   -1.0768    0.1223 H   0  0  0  0  0  0  0  0  0  0  0  0
    4.9480   -2.2324    1.0050 H   0  0  0  0  0  0  0  0  0  0  0  0
    4.9961   -2.2634   -0.7740 H   0  0  0  0  0  0  0  0  0  0  0  0
    3.9028    0.0152    0.9376 H   0  0  0  0  0  0  0  0  0  0  0  0
    3.9510   -0.0158   -0.8414 H   0  0  0  0  0  0  0  0  0  0  0  0
    2.5989   -2.3286    0.0527 H   0  0  0  0  0  0  0  0  0  0  0  0
   -2.0954   -2.3180   -0.0738 H   0  0  0  0  0  0  0  0  0  0  0  0
   -3.2297    0.2891   -0.7405 H   0  0  0  0  0  0  0  0  0  0  0  0
   -4.5647   -2.3936   -0.1591 H   0  0  0  0  0  0  0  0  0  0  0  0
   -5.3796   -0.9452   -0.7965 H   0  0  0  0  0  0  0  0  0  0  0  0
   -4.1423   -1.7725   -1.7728 H   0  0  0  0  0  0  0  0  0  0  0  0
   -3.0003    0.4097    1.7256 H   0  0  0  0  0  0  0  0  0  0  0  0
   -4.7126    0.3291    1.2464 H   0  0  0  0  0  0  0  0  0  0  0  0
   -3.8977   -1.1193    1.8839 H   0  0  0  0  0  0  0  0  0  0  0  0
  1  2  1  0  0  0  0
  1 15  1  0  0  0  0
  1 16  1  0  0  0  0
  1 17  1  0  0  0  0
  2  3  1  0  0  0  0
  2 18  1  0  0  0  0
  2 19  1  0  0  0  0
  3  4  1  0  0  0  0
  3 20  1  0  0  0  0
  4  5  2  0  0  0  0
  4 14  1  0  0  0  0
  5  6  1  0  0  0  0
  6  7  1  0  0  0  0
  6 11  2  0  0  0  0
  7  8  1  0  0  0  0
  7 21  1  0  0  0  0
  8  9  1  0  0  0  0
  8 10  1  0  0  0  0
  8 22  1  0  0  0  0
  9 23  1  0  0  0  0
  9 24  1  0  0  0  0
  9 25  1  0  0  0  0
 10 26  1  0  0  0  0
 10 27  1  0  0  0  0
 10 28  1  0  0  0  0
 11 12  1  0  0  0  0
 12 13  1  0  0  0  0
 12 14  2  0  0  0  0
M  END
>  <likely_enzyme_classes>
dehalogenase; monooxygenase

>  <activity>
-12.1

>  <molID>
mol000103

>  <name>
atrazine

>  <reference>
Dries et al. (1987); Cormier et al. (2015); Starner et al. (1999); Widmer and others (1993)

>  <speciation_state_pH7.4>
neutral

>  <substance_type>
herbicide

>  <smiles>
CCN=c1nc(Cl)[nH]c(=NC(C)C)[nH]1

>  <inchi>
InChI=1S/C8H14ClN5/c1-4-10-7-12-6(9)13-8(14-7)11-5(2)3/h5H,4H2,1-3H3,(H2,10,11,12,13,14)

>  <inchikey>
MXWJVTOOROXGIU-UHFFFAOYSA-N

$$$$

emcorina  05091710353D 1   1.00000     0.00000 
CORINA evaluation license 3.49 0066  11.04.2013
  5  4  0  0  0  0  0  0  0  0999 V2000
    0.0000   -1.4721   -1.0410 Cl  0  0  0  0  0  0  0  0  0  0  0  0
   -0.0000   -0.0000    0.0000 C   0  0  0  0  0  0  0  0  0  0  0  0
    0.0000    1.4721   -1.0410 Cl  0  0  0  0  0  0  0  0  0  0  0  0
   -1.4722    0.0000    1.0409 Cl  0  0  0  0  0  0  0  0  0  0  0  0
    1.4721   -0.0000    1.0410 Cl  0  0  0  0  0  0  0  0  0  0  0  0
  1  2  1  0
  2  3  1  0
  2  4  1  0
  2  5  1  0
M  END
>  <likely_enzyme_classes>
dehalogenase

>  <activity>
-11.5

>  <molID>
mol000105

>  <name>
carbon tetrachloride

>  <reference>
Capel and Larson (1995)

>  <speciation_state_pH7.4>
neutral

>  <substance_type>
chemical substance

>  <smiles>
ClC(Cl)(Cl)Cl

>  <inchi>
InChI=1S/CCl4/c2-1(3,4)5

>  <inchikey>
VZGDMQKNWNREIO-UHFFFAOYSA-N

$$$$

emcorina  05091710353D 1   1.00000     0.00000 
CORINA evaluation license 3.49 0066  11.04.2013
 22 22  0  0  0  0  0  0  0  0999 V2000
    4.1013   -0.0701    0.7974 C   0  0  0  0  0  0  0  0  0  0  0  0
    2.7666    0.3303    0.1657 C   0  0  0  0  0  0  0  0  0  0  0  0
    3.0126    0.8814   -1.2402 C   0  0  0  0  0  0  0  0  0  0  0  0
    1.8933   -0.8431    0.0843 N   0  0  0  0  0  0  0  0  0  0  0  0
    0.5231   -0.6825    0.0508 C   0  0  0  0  0  0  0  0  0  0  0  0
   -0.0057    0.5378    0.0925 N   0  0  0  0  0  0  0  0  0  0  0  0
   -1.3193    0.6926    0.0600 C   0  0  0  0  0  0  0  0  0  0  0  0
   -2.0052    2.2864    0.1145 Cl  0  0  0  0  0  0  0  0  0  0  0  0
   -2.1111   -0.3645   -0.0144 N   0  0  0  0  0  0  0  0  0  0  0  0
   -1.5883   -1.5877   -0.0564 C   0  0  0  0  0  0  0  0  0  0  0  0
   -2.4150   -2.6899   -0.1340 N   0  0  0  0  0  0  0  0  0  0  0  0
   -0.2695   -1.7462   -0.0286 N   0  0  0  0  0  0  0  0  0  0  0  0
    4.7510    0.8030    0.8579 H   0  0  0  0  0  0  0  0  0  0  0  0
    3.9260   -0.4628    1.7990 H   0  0  0  0  0  0  0  0  0  0  0  0
    4.5778   -0.8358    0.1852 H   0  0  0  0  0  0  0  0  0  0  0  0
    2.2901    1.0960    0.7779 H   0  0  0  0  0  0  0  0  0  0  0  0
    3.6624    1.7545   -1.1796 H   0  0  0  0  0  0  0  0  0  0  0  0
    3.4891    0.1157   -1.8524 H   0  0  0  0  0  0  0  0  0  0  0  0
    2.0617    1.1667   -1.6902 H   0  0  0  0  0  0  0  0  0  0  0  0
    2.2782   -1.7330    0.0539 H   0  0  0  0  0  0  0  0  0  0  0  0
   -3.3777   -2.5734   -0.1580 H   0  0  0  0  0  0  0  0  0  0  0  0
   -2.0334   -3.5812   -0.1646 H   0  0  0  0  0  0  0  0  0  0  0  0
  1  2  1  0  0  0  0
  1 13  1  0  0  0  0
  1 14  1  0  0  0  0
  1 15  1  0  0  0  0
  2  3  1  0  0  0  0
  2  4  1  0  0  0  0
  2 16  1  0  0  0  0
  3 17  1  0  0  0  0
  3 18  1  0  0  0  0
  3 19  1  0  0  0  0
  4  5  1  0  0  0  0
  4 20  1  0  0  0  0
  5  6  2  0  0  0  0
  5 12  1  0  0  0  0
  6  7  1  0  0  0  0
  7  8  1  0  0  0  0
  7  9  2  0  0  0  0
  9 10  1  0  0  0  0
 10 11  1  0  0  0  0
 10 12  2  0  0  0  0
 11 21  1  0  0  0  0
 11 22  1  0  0  0  0
M  END
>  <likely_enzyme_classes>
dehalogenase; deaminase; amine dehydrogenase

>  <activity>
-12.2

>  <molID>
mol000107

>  <name>
desethylatrazine

>  <reference>
Papiernik and Spalding (1998); Cormier et al. (2015)

>  <speciation_state_pH7.4>
neutral

>  <substance_type>
herbicide transformation product

>  <smiles>
CC(C)N=c1[nH]c(Cl)nc(=N)[nH]1

>  <inchi>
InChI=1S/C6H10ClN5/c1-3(2)9-6-11-4(7)10-5(8)12-6/h3H,1-2H3,(H3,8,9,10,11,12)

>  <inchikey>
DFWFIQKMSFGDCQ-UHFFFAOYSA-N

$$$$

emcorina  05091710353D 1   1.00000     0.00000 
CORINA evaluation license 3.49 0066  11.04.2013
 18 18  0  0  0  0  0  0  0  0999 V2000
    1.2560   -0.7094   -1.1940 Cl  0  0  0  0  0  0  0  0  0  0  0  0
    1.2560   -0.7094    0.6090 C   0  0  0  0  0  0  0  0  0  0  0  0
    1.2424    0.7331    1.1190 C   0  0  0  0  0  0  0  0  0  0  0  0
    2.7064    1.5969    0.5180 Cl  0  0  0  0  0  0  0  0  0  0  0  0
   -0.0137    1.4424    0.6090 C   0  0  0  0  0  0  0  0  0  0  0  0
   -0.0137    1.4424   -1.1940 Cl  0  0  0  0  0  0  0  0  0  0  0  0
   -1.2560    0.7094    1.1190 C   0  0  0  0  0  0  0  0  0  0  0  0
   -2.7361    1.5453    0.5180 Cl  0  0  0  0  0  0  0  0  0  0  0  0
   -1.2424   -0.7331    0.6090 C   0  0  0  0  0  0  0  0  0  0  0  0
   -1.2424   -0.7331   -1.1940 Cl  0  0  0  0  0  0  0  0  0  0  0  0
    0.0137   -1.4424    1.1190 C   0  0  0  0  0  0  0  0  0  0  0  0
    0.0298   -3.1422    0.5180 Cl  0  0  0  0  0  0  0  0  0  0  0  0
    2.1508   -1.2148    0.9724 H   0  0  0  0  0  0  0  0  0  0  0  0
    1.2424    0.7331    2.2090 H   0  0  0  0  0  0  0  0  0  0  0  0
   -0.0234    2.4700    0.9724 H   0  0  0  0  0  0  0  0  0  0  0  0
   -1.2560    0.7094    2.2090 H   0  0  0  0  0  0  0  0  0  0  0  0
   -2.1274   -1.2553    0.9724 H   0  0  0  0  0  0  0  0  0  0  0  0
    0.0137   -1.4424    2.2090 H   0  0  0  0  0  0  0  0  0  0  0  0
  1  2  1  0  0  0  0
  2  3  1  0  0  0  0
  2 11  1  0  0  0  0
  2 13  1  0  0  0  0
  3  4  1  0  0  0  0
  3  5  1  0  0  0  0
  3 14  1  0  0  0  0
  5  6  1  0  0  0  0
  5  7  1  0  0  0  0
  5 15  1  0  0  0  0
  7  8  1  0  0  0  0
  7  9  1  0  0  0  0
  7 16  1  0  0  0  0
  9 10  1  0  0  0  0
  9 11  1  0  0  0  0
  9 17  1  0  0  0  0
 11 12  1  0  0  0  0
 11 18  1  0  0  0  0
M  END
>  <likely_enzyme_classes>
dehalogenase

>  <activity>
-10.4

>  <molID>
mol000109

>  <name>
lindane

>  <reference>
Capel and Larson (1995); Pubchem

>  <speciation_state_pH7.4>
neutral

>  <substance_type>
chemical substance

>  <smiles>
ClC1C(Cl)C(Cl)C(Cl)C(Cl)C1Cl

>  <inchi>
InChI=1S/C6H6Cl6/c7-1-2(8)4(10)6(12)5(11)3(1)9/h1-6H

>  <inchikey>
JLYXXMFPNIAWKQ-UHFFFAOYSA-N

$$$$

emcorina  05091710353D 1   1.00000     0.00000 
CORINA evaluation license 3.49 0066  11.04.2013
  6  5  0  0  0  0  0  0  0  0999 V2000
   -2.1674   -0.4885   -0.0001 Cl  0  0  0  0  0  0  0  0  0  0  0  0
   -0.5115   -1.0098   -0.0001 C   0  0  0  0  0  0  0  0  0  0  0  0
    0.4572   -0.1215   -0.0000 C   0  0  0  0  0  0  0  0  0  0  0  0
    0.0807    1.5732    0.0001 Cl  0  0  0  0  0  0  0  0  0  0  0  0
    2.1130   -0.6428   -0.0001 Cl  0  0  0  0  0  0  0  0  0  0  0  0
   -0.2774   -2.0641    0.0043 H   0  0  0  0  0  0  0  0  0  0  0  0
  1  2  1  0  0  0  0
  2  3  2  0  0  0  0
  2  6  1  0  0  0  0
  3  4  1  0  0  0  0
  3  5  1  0  0  0  0
M  END
>  <likely_enzyme_classes>
dehalogenase

>  <activity>
-11.6

>  <molID>
mol000111

>  <name>
trichloroethylene

>  <reference>
Capel and Larson (1995)

>  <speciation_state_pH7.4>
neutral

>  <substance_type>
chemical substance

>  <smiles>
ClC=C(Cl)Cl

>  <inchi>
InChI=1S/C2HCl3/c3-1-2(4)5/h1H

>  <inchikey>
XSTXAVWGXDQKEL-UHFFFAOYSA-N

$$$$

emcorina  05091710353D 1   1.00000     0.00000 
CORINA evaluation license 3.49 0066  11.04.2013
 25 25  0  0  0  0  0  0  0  0999 V2000
    4.7784   -1.6162    0.0001 C   0  0  0  0  0  0  0  0  0  0  0  0
    3.6136   -0.6241   -0.0005 C   0  0  0  0  0  0  0  0  0  0  0  0
    2.3463   -1.3590   -0.0004 N   0  0  0  0  0  0  0  0  0  0  0  0
    1.1499   -0.6713   -0.0008 C   0  0  0  0  0  0  0  0  0  0  0  0
    0.0000   -1.3371   -0.0007 N   0  0  0  0  0  0  0  0  0  0  0  0
   -1.1498   -0.6714   -0.0006 C   0  0  0  0  0  0  0  0  0  0  0  0
   -2.3462   -1.3591   -0.0001 N   0  0  0  0  0  0  0  0  0  0  0  0
   -3.6136   -0.6243   -0.0000 C   0  0  0  0  0  0  0  0  0  0  0  0
   -4.7783   -1.6164    0.0007 C   0  0  0  0  0  0  0  0  0  0  0  0
   -1.1466    0.6594   -0.0007 N   0  0  0  0  0  0  0  0  0  0  0  0
   -0.0000    1.3195   -0.0008 C   0  0  0  0  0  0  0  0  0  0  0  0
   -0.0001    3.0555   -0.0003 Cl  0  0  0  0  0  0  0  0  0  0  0  0
    1.1465    0.6595    0.0042 N   0  0  0  0  0  0  0  0  0  0  0  0
    4.7217   -2.2426    0.8903 H   0  0  0  0  0  0  0  0  0  0  0  0
    4.7220   -2.2433   -0.8897 H   0  0  0  0  0  0  0  0  0  0  0  0
    5.7213   -1.0694   -0.0000 H   0  0  0  0  0  0  0  0  0  0  0  0
    3.6700    0.0030    0.8893 H   0  0  0  0  0  0  0  0  0  0  0  0
    3.6703    0.0023   -0.8907 H   0  0  0  0  0  0  0  0  0  0  0  0
    2.3481   -2.3290    0.0000 H   0  0  0  0  0  0  0  0  0  0  0  0
   -2.3480   -2.3291    0.0003 H   0  0  0  0  0  0  0  0  0  0  0  0
   -3.6699    0.0028    0.8897 H   0  0  0  0  0  0  0  0  0  0  0  0
   -3.6704    0.0021   -0.8902 H   0  0  0  0  0  0  0  0  0  0  0  0
   -4.7220   -2.2435   -0.8891 H   0  0  0  0  0  0  0  0  0  0  0  0
   -4.7215   -2.2428    0.8909 H   0  0  0  0  0  0  0  0  0  0  0  0
   -5.7213   -1.0697    0.0007 H   0  0  0  0  0  0  0  0  0  0  0  0
  1  2  1  0  0  0  0
  1 14  1  0  0  0  0
  1 15  1  0  0  0  0
  1 16  1  0  0  0  0
  2  3  1  0  0  0  0
  2 17  1  0  0  0  0
  2 18  1  0  0  0  0
  3  4  1  0  0  0  0
  3 19  1  0  0  0  0
  4  5  2  0  0  0  0
  4 13  1  0  0  0  0
  5  6  1  0  0  0  0
  6  7  1  0  0  0  0
  6 10  2  0  0  0  0
  7  8  1  0  0  0  0
  7 20  1  0  0  0  0
  8  9  1  0  0  0  0
  8 21  1  0  0  0  0
  8 22  1  0  0  0  0
  9 23  1  0  0  0  0
  9 24  1  0  0  0  0
  9 25  1  0  0  0  0
 10 11  1  0  0  0  0
 11 12  1  0  0  0  0
 11 13  2  0  0  0  0
M  END
>  <likely_enzyme_classes>
dehalogenase; monooxygenase

>  <activity>
-11.9

>  <molID>
mol000112

>  <name>
simazine

>  <reference>
Starner et al. (1999)

>  <speciation_state_pH7.4>
neutral

>  <substance_type>
herbicide

>  <smiles>
CCN=c1nc(Cl)[nH]c(=NCC)[nH]1

>  <inchi>
InChI=1S/C7H12ClN5/c1-3-9-6-11-5(8)12-7(13-6)10-4-2/h3-4H2,1-2H3,(H2,9,10,11,12,13)

>  <inchikey>
ODCWYMIRDDJXKW-UHFFFAOYSA-N

$$$$

emcorina  05091710353D 1   1.00000     0.00000 
CORINA evaluation license 3.49 0066  11.04.2013
 13 13  0  0  0  0  0  0  0  0999 V2000
    2.5203   -0.0000   -0.0112 O   0  0  0  0  0  0  0  0  0  0  0  0
    1.1606   -0.0000   -0.0067 C   0  0  0  0  0  0  0  0  0  0  0  0
    0.4657    1.2012   -0.0056 C   0  0  0  0  0  0  0  0  0  0  0  0
    1.3317    2.7058   -0.0105 Cl  0  0  0  0  0  0  0  0  0  0  0  0
   -0.9170    1.1988   -0.0011 C   0  0  0  0  0  0  0  0  0  0  0  0
   -1.6077   -0.0000    0.0024 C   0  0  0  0  0  0  0  0  0  0  0  0
   -3.3437   -0.0000    0.0075 Cl  0  0  0  0  0  0  0  0  0  0  0  0
   -0.9169   -1.1988    0.0013 C   0  0  0  0  0  0  0  0  0  0  0  0
    0.4657   -1.2013   -0.0091 C   0  0  0  0  0  0  0  0  0  0  0  0
    1.3317   -2.7058   -0.0104 Cl  0  0  0  0  0  0  0  0  0  0  0  0
    2.9165    0.0008    0.8709 H   0  0  0  0  0  0  0  0  0  0  0  0
   -1.4582    2.1334    0.0002 H   0  0  0  0  0  0  0  0  0  0  0  0
   -1.4582   -2.1334    0.0040 H   0  0  0  0  0  0  0  0  0  0  0  0
  1  2  1  0  0  0  0
  1 11  1  0  0  0  0
  2  3  2  0  0  0  0
  2  9  1  0  0  0  0
  3  4  1  0  0  0  0
  3  5  1  0  0  0  0
  5  6  2  0  0  0  0
  5 12  1  0  0  0  0
  6  7  1  0  0  0  0
  6  8  1  0  0  0  0
  8  9  2  0  0  0  0
  8 13  1  0  0  0  0
  9 10  1  0  0  0  0
M  END
>  <likely_enzyme_classes>
dehalogenase

>  <activity>
-11

>  <molID>
mol000114

>  <name>
2,4,6-trichlorophenol

>  <reference>
Mackay handbook of physical-chemical properties

>  <speciation_state_pH7.4>
anionic

>  <substance_type>
chemical substance

>  <smiles>
Oc1c(Cl)cc(Cl)cc1Cl

>  <inchi>
InChI=1S/C6H3Cl3O/c7-3-1-4(8)6(10)5(9)2-3/h1-2,10H

>  <inchikey>
LINPIYWFGCPVIE-UHFFFAOYSA-N

$$$$

emcorina  05091710353D 1   1.00000     0.00000 
CORINA evaluation license 3.49 0066  11.04.2013
 13 13  0  0  0  0  0  0  0  0999 V2000
   -2.2274    1.7236    0.0108 O   0  0  0  0  0  0  0  0  0  0  0  0
   -1.2822    0.7462    0.0065 C   0  0  0  0  0  0  0  0  0  0  0  0
    0.0640    1.0817    0.0055 C   0  0  0  0  0  0  0  0  0  0  0  0
    0.5436    2.7502    0.0104 Cl  0  0  0  0  0  0  0  0  0  0  0  0
    1.0242    0.0852    0.0011 C   0  0  0  0  0  0  0  0  0  0  0  0
    2.7090    0.5036    0.0005 Cl  0  0  0  0  0  0  0  0  0  0  0  0
    0.6417   -1.2453   -0.0023 C   0  0  0  0  0  0  0  0  0  0  0  0
    1.8477   -2.4940   -0.0079 Cl  0  0  0  0  0  0  0  0  0  0  0  0
   -0.7006   -1.5812   -0.0009 C   0  0  0  0  0  0  0  0  0  0  0  0
   -1.6628   -0.5887    0.0088 C   0  0  0  0  0  0  0  0  0  0  0  0
   -3.3465   -1.0115    0.0106 Cl  0  0  0  0  0  0  0  0  0  0  0  0
   -2.5021    2.0090   -0.8713 H   0  0  0  0  0  0  0  0  0  0  0  0
   -0.9968   -2.6198   -0.0032 H   0  0  0  0  0  0  0  0  0  0  0  0
  1  2  1  0  0  0  0
  1 12  1  0  0  0  0
  2  3  2  0  0  0  0
  2 10  1  0  0  0  0
  3  4  1  0  0  0  0
  3  5  1  0  0  0  0
  5  6  1  0  0  0  0
  5  7  2  0  0  0  0
  7  8  1  0  0  0  0
  7  9  1  0  0  0  0
  9 10  2  0  0  0  0
  9 13  1  0  0  0  0
 10 11  1  0  0  0  0
M  END
>  <likely_enzyme_classes>
dehalogenase

>  <activity>
-11.8

>  <molID>
mol000117

>  <name>
2,3,4,6-tetrachlorophenol

>  <reference>
Mackay handbook of physical-chemical properties

>  <speciation_state_pH7.4>
anionic

>  <substance_type>
chemical substance

>  <smiles>
Oc1c(Cl)cc(Cl)c(Cl)c1Cl

>  <inchi>
InChI=1S/C6H2Cl4O/c7-2-1-3(8)6(11)5(10)4(2)9/h1,11H

>  <inchikey>
VGVRPFIJEJYOFN-UHFFFAOYSA-N

$$$$

emcorina  05091710353D 1   1.00000     0.00000 
CORINA evaluation license 3.49 0066  11.04.2013
  8  7  0  0  0  0  0  0  0  0999 V2000
    2.2636   -0.5122    0.0000 O   0  0  0  0  0  0  0  0  0  0  0  0
    1.2852    0.4069   -0.0000 C   0  0  0  0  0  0  0  0  0  0  0  0
    1.5613    1.5831   -0.0000 O   0  0  0  0  0  0  0  0  0  0  0  0
   -0.1575   -0.0285    0.0000 C   0  0  0  0  0  0  0  0  0  0  0  0
   -1.2239    1.4253   -0.0000 Cl  0  0  0  0  0  0  0  0  0  0  0  0
   -0.4874   -1.0158   -1.4721 Cl  0  0  0  0  0  0  0  0  0  0  0  0
   -0.4873   -1.0158    1.4722 Cl  0  0  0  0  0  0  0  0  0  0  0  0
    3.1735   -0.1847   -0.0000 H   0  0  0  0  0  0  0  0  0  0  0  0
  1  2  1  0  0  0  0
  1  8  1  0  0  0  0
  2  3  2  0  0  0  0
  2  4  1  0  0  0  0
  4  5  1  0  0  0  0
  4  6  1  0  0  0  0
  4  7  1  0  0  0  0
M  END
>  <likely_enzyme_classes>
dehalogenase

>  <activity>
-11

>  <molID>
mol000118

>  <name>
trichloro acetic acid

>  <reference>
Ellis et al. (2001)

>  <speciation_state_pH7.4>
anionic

>  <substance_type>
chemical substance

>  <smiles>
O=C(O)C(Cl)(Cl)Cl

>  <inchi>
InChI=1S/C2HCl3O2/c3-2(4,5)1(6)7/h(H,6,7)

>  <inchikey>
YNJBWRMUSHSURL-UHFFFAOYSA-N

$$$$

emcorina  05091710353D 1   1.00000     0.00000 
CORINA evaluation license 3.49 0066  11.04.2013
  8  7  0  0  0  0  0  0  0  0999 V2000
    2.2634   -0.2486   -0.2408 O   0  0  0  0  0  0  0  0  0  0  0  0
    1.1369    0.4605   -0.0686 C   0  0  0  0  0  0  0  0  0  0  0  0
    1.1804    1.5435    0.4655 O   0  0  0  0  0  0  0  0  0  0  0  0
   -0.1823   -0.0940   -0.5412 C   0  0  0  0  0  0  0  0  0  0  0  0
   -0.4467   -1.7210    0.1894 Cl  0  0  0  0  0  0  0  0  0  0  0  0
   -1.5139    1.0134   -0.0401 Cl  0  0  0  0  0  0  0  0  0  0  0  0
    3.0853    0.1484    0.0787 H   0  0  0  0  0  0  0  0  0  0  0  0
   -0.1715   -0.1810   -1.6277 H   0  0  0  0  0  0  0  0  0  0  0  0
  1  2  1  0  0  0  0
  1  7  1  0  0  0  0
  2  3  2  0  0  0  0
  2  4  1  0  0  0  0
  4  5  1  0  0  0  0
  4  6  1  0  0  0  0
  4  8  1  0  0  0  0
M  END
>  <likely_enzyme_classes>
dehalogenase

>  <activity>
-10

>  <molID>
mol000119

>  <name>
dichloro acetic acid

>  <reference>
Ellis et al. (2001)

>  <speciation_state_pH7.4>
anionic

>  <substance_type>
chemical substance

>  <smiles>
O=C(O)C(Cl)Cl

>  <inchi>
InChI=1S/C2H2Cl2O2/c3-1(4)2(5)6/h1H,(H,5,6)

>  <inchikey>
JXTHNDFMNIQAHM-UHFFFAOYSA-N

$$$$

emcorina  05091710353D 1   1.00000     0.00000 
CORINA evaluation license 3.49 0066  11.04.2013
  8  7  0  0  0  0  0  0  0  0999 V2000
    1.7251    0.9742    0.0000 O   0  0  0  0  0  0  0  0  0  0  0  0
    0.9448   -0.1180    0.0000 C   0  0  0  0  0  0  0  0  0  0  0  0
    1.4449   -1.2178   -0.0000 O   0  0  0  0  0  0  0  0  0  0  0  0
   -0.5552    0.0277   -0.0000 C   0  0  0  0  0  0  0  0  0  0  0  0
   -1.1468   -1.2401   -0.0000 F   0  0  0  0  0  0  0  0  0  0  0  0
   -0.9556    0.7291    1.1423 F   0  0  0  0  0  0  0  0  0  0  0  0
   -0.9556    0.7292   -1.1423 F   0  0  0  0  0  0  0  0  0  0  0  0
    2.6814    0.8305    0.0000 H   0  0  0  0  0  0  0  0  0  0  0  0
  1  2  1  0  0  0  0
  1  8  1  0  0  0  0
  2  3  2  0  0  0  0
  2  4  1  0  0  0  0
  4  5  1  0  0  0  0
  4  6  1  0  0  0  0
  4  7  1  0  0  0  0
M  END
>  <likely_enzyme_classes>
dehalogenase

>  <activity>
-12.6

>  <molID>
mol000121

>  <name>
trifluoroacetic acid

>  <reference>
Ellis et al. (2001)

>  <speciation_state_pH7.4>
anionic

>  <substance_type>
chemical substance

>  <smiles>
O=C(O)C(F)(F)F

>  <inchi>
InChI=1S/C2HF3O2/c3-2(4,5)1(6)7/h(H,6,7)

>  <inchikey>
DTQVDTLACAAQTR-UHFFFAOYSA-N

$$$$

emcorina  05091710353D 1   1.00000     0.00000 
CORINA evaluation license 3.49 0066  11.04.2013
  8  7  0  0  0  0  0  0  0  0999 V2000
    1.8221   -0.1426   -0.0003 C   0  0  0  0  0  0  0  0  0  0  0  0
    0.6175    0.4319    0.0001 C   0  0  0  0  0  0  0  0  0  0  0  0
   -0.5878   -0.3966   -0.0002 C   0  0  0  0  0  0  0  0  0  0  0  0
   -1.6829    0.1256    0.0001 O   0  0  0  0  0  0  0  0  0  0  0  0
    2.7121    0.4692   -0.0001 H   0  0  0  0  0  0  0  0  0  0  0  0
    1.9069   -1.2193    0.0037 H   0  0  0  0  0  0  0  0  0  0  0  0
    0.5327    1.5085    0.0006 H   0  0  0  0  0  0  0  0  0  0  0  0
   -0.5030   -1.4733   -0.0008 H   0  0  0  0  0  0  0  0  0  0  0  0
  1  2  2  0  0  0  0
  1  5  1  0  0  0  0
  1  6  1  0  0  0  0
  2  3  1  0  0  0  0
  2  7  1  0  0  0  0
  3  4  2  0  0  0  0
  3  8  1  0  0  0  0
M  END
>  <likely_enzyme_classes>
aldehyde dehydrogenase

>  <activity>
-9.8

>  <molID>
mol000122

>  <name>
acrolein (2-propenal)

>  <reference>
Mackay handbook of physical-chemical properties

>  <speciation_state_pH7.4>
neutral

>  <substance_type>
chemical substance

>  <smiles>
C=CC=O

>  <inchi>
InChI=1S/C3H4O/c1-2-3-4/h2-3H,1H2

>  <inchikey>
HGINCPLSRVDWNT-UHFFFAOYSA-N

$$$$

emcorina  05091710353D 1   1.00000     0.00000 
CORINA evaluation license 3.49 0066  11.04.2013
  4  3  0  0  0  0  0  0  0  0999 V2000
    0.6072    0.0000   -0.0004 C   0  0  0  0  0  0  0  0  0  0  0  0
   -0.6004    0.0000    0.0001 O   0  0  0  0  0  0  0  0  0  0  0  0
    1.1472    0.9353    0.0016 H   0  0  0  0  0  0  0  0  0  0  0  0
    1.1472   -0.9353    0.0016 H   0  0  0  0  0  0  0  0  0  0  0  0
  1  2  2  0  0  0  0
  1  3  1  0  0  0  0
  1  4  1  0  0  0  0
M  END
>  <likely_enzyme_classes>
aldehyde dehydrogenase

>  <activity>
-9.8

>  <molID>
mol000123

>  <name>
formaldehyde

>  <reference>
Howard: Handbook of Environmental Degradation Rates

>  <speciation_state_pH7.4>
neutral

>  <substance_type>
chemical substance

>  <smiles>
C=O

>  <inchi>
InChI=1S/CH2O/c1-2/h1H2

>  <inchikey>
WSFSSNUMVMOOMR-UHFFFAOYSA-N

$$$$

emcorina  05091710353D 1   1.00000     0.00000 
CORINA evaluation license 3.49 0066  11.04.2013
 13 12  0  0  0  0  0  0  0  0999 V2000
    2.4506   -0.2062   -0.1102 C   0  0  0  0  0  0  0  0  0  0  0  0
    1.1075    0.5260   -0.1358 C   0  0  0  0  0  0  0  0  0  0  0  0
   -0.0007   -0.4253    0.3200 C   0  0  0  0  0  0  0  0  0  0  0  0
   -1.3237    0.2960    0.2948 C   0  0  0  0  0  0  0  0  0  0  0  0
   -2.2486   -0.1608   -0.3331 O   0  0  0  0  0  0  0  0  0  0  0  0
    3.2402    0.4715   -0.4350 H   0  0  0  0  0  0  0  0  0  0  0  0
    2.6591   -0.5476    0.9037 H   0  0  0  0  0  0  0  0  0  0  0  0
    2.4095   -1.0642   -0.7813 H   0  0  0  0  0  0  0  0  0  0  0  0
    1.1486    1.3840    0.5352 H   0  0  0  0  0  0  0  0  0  0  0  0
    0.8990    0.8674   -1.1497 H   0  0  0  0  0  0  0  0  0  0  0  0
   -0.0419   -1.2833   -0.3510 H   0  0  0  0  0  0  0  0  0  0  0  0
    0.2077   -0.7667    1.3339 H   0  0  0  0  0  0  0  0  0  0  0  0
   -1.4447    1.2213    0.8384 H   0  0  0  0  0  0  0  0  0  0  0  0
  1  2  1  0  0  0  0
  1  6  1  0  0  0  0
  1  7  1  0  0  0  0
  1  8  1  0  0  0  0
  2  3  1  0  0  0  0
  2  9  1  0  0  0  0
  2 10  1  0  0  0  0
  3  4  1  0  0  0  0
  3 11  1  0  0  0  0
  3 12  1  0  0  0  0
  4  5  2  0  0  0  0
  4 13  1  0  0  0  0
M  END
>  <likely_enzyme_classes>
aldehyde dehydrogenase

>  <activity>
-9.8

>  <molID>
mol000124

>  <name>
n-butyraldehyde

>  <reference>
Mackay handbook of physical-chemical properties

>  <speciation_state_pH7.4>
neutral

>  <substance_type>
chemical substance

>  <smiles>
CCCC=O

>  <inchi>
InChI=1S/C4H8O/c1-2-3-4-5/h4H,2-3H2,1H3

>  <inchikey>
ZTQSAGDEMFDKMZ-UHFFFAOYSA-N

$$$$

emcorina  05091710353D 1   1.00000     0.00000 
CORINA evaluation license 3.49 0066  11.04.2013
 10  9  0  0  0  0  0  0  0  0999 V2000
    1.7550    0.3141   -0.1732 C   0  0  0  0  0  0  0  0  0  0  0  0
    0.5668   -0.6063    0.1133 C   0  0  0  0  0  0  0  0  0  0  0  0
   -0.6623    0.2261    0.3727 C   0  0  0  0  0  0  0  0  0  0  0  0
   -1.6640    0.0424   -0.2763 O   0  0  0  0  0  0  0  0  0  0  0  0
    1.9291    0.9610    0.6867 H   0  0  0  0  0  0  0  0  0  0  0  0
    2.6440   -0.2879   -0.3609 H   0  0  0  0  0  0  0  0  0  0  0  0
    1.5383    0.9251   -1.0495 H   0  0  0  0  0  0  0  0  0  0  0  0
    0.3927   -1.2531   -0.7466 H   0  0  0  0  0  0  0  0  0  0  0  0
    0.7836   -1.2173    0.9895 H   0  0  0  0  0  0  0  0  0  0  0  0
   -0.6474    0.9868    1.1392 H   0  0  0  0  0  0  0  0  0  0  0  0
  1  2  1  0  0  0  0
  1  5  1  0  0  0  0
  1  6  1  0  0  0  0
  1  7  1  0  0  0  0
  2  3  1  0  0  0  0
  2  8  1  0  0  0  0
  2  9  1  0  0  0  0
  3  4  2  0  0  0  0
  3 10  1  0  0  0  0
M  END
>  <likely_enzyme_classes>
aldehyde dehydrogenase

>  <activity>
-9.8

>  <molID>
mol000125

>  <name>
propionaldehyde

>  <reference>
Mackay handbook of physical-chemical properties

>  <speciation_state_pH7.4>
neutral

>  <substance_type>
chemical substance

>  <smiles>
CCC=O

>  <inchi>
InChI=1S/C3H6O/c1-2-3-4/h3H,2H2,1H3

>  <inchikey>
NBBJYMSMWIIQGU-UHFFFAOYSA-N

$$$$

emcorina  05091710353D 1   1.00000     0.00000 
CORINA evaluation license 3.49 0066  11.04.2013
 39 42  0  0  0  0  0  0  0  0999 V2000
   -2.3411    3.4454   -0.2141 N   0  0  0  0  0  0  0  0  0  0  0  0
   -1.9399    2.1228   -0.1226 C   0  0  0  0  0  0  0  0  0  0  0  0
   -0.6484    1.8522   -0.0274 N   0  0  0  0  0  0  0  0  0  0  0  0
   -0.2255    0.5950    0.0626 C   0  0  0  0  0  0  0  0  0  0  0  0
   -1.1679   -0.4462    0.0554 C   0  0  0  0  0  0  0  0  0  0  0  0
   -0.4792   -1.6095    0.1575 N   0  0  0  0  0  0  0  0  0  0  0  0
    0.7946   -1.3540    0.2251 C   0  0  0  0  0  0  0  0  0  0  0  0
    1.0027   -0.0067    0.1705 N   0  0  0  0  0  0  0  0  0  0  0  0
    2.2997    0.6728    0.2179 C   0  0  0  0  0  0  0  0  0  0  0  0
    3.1894    0.2183   -0.9624 C   0  0  0  0  0  0  0  0  0  0  0  0
    4.5869    0.1951   -0.3008 C   0  0  0  0  0  0  0  0  0  0  0  0
    5.4151   -0.9704   -0.8453 C   0  0  0  0  0  0  0  0  0  0  0  0
    6.7385   -0.9054   -0.3099 O   0  0  0  0  0  0  0  0  0  0  0  0
    4.3113    0.0021    1.1723 C   0  0  0  0  0  0  0  0  0  0  0  0
    3.0640    0.2626    1.4552 C   0  0  0  0  0  0  0  0  0  0  0  0
   -2.5297   -0.1119   -0.0471 C   0  0  0  0  0  0  0  0  0  0  0  0
   -3.5004   -1.0977   -0.0584 N   0  0  0  0  0  0  0  0  0  0  0  0
   -4.9149   -0.7317   -0.1658 C   0  0  0  0  0  0  0  0  0  0  0  0
   -5.8719   -1.7734   -0.7488 C   0  0  0  0  0  0  0  0  0  0  0  0
   -5.9039   -1.4581    0.7480 C   0  0  0  0  0  0  0  0  0  0  0  0
   -2.8645    1.1708   -0.1282 N   0  0  0  0  0  0  0  0  0  0  0  0
   -1.6794    4.1546   -0.2076 H   0  0  0  0  0  0  0  0  0  0  0  0
   -3.2837    3.6623   -0.2886 H   0  0  0  0  0  0  0  0  0  0  0  0
    1.5723   -2.0983    0.3123 H   0  0  0  0  0  0  0  0  0  0  0  0
    2.1622    1.7539    0.1954 H   0  0  0  0  0  0  0  0  0  0  0  0
    2.9036   -0.7752   -1.3079 H   0  0  0  0  0  0  0  0  0  0  0  0
    3.1549    0.9397   -1.7788 H   0  0  0  0  0  0  0  0  0  0  0  0
    5.1036    1.1396   -0.4716 H   0  0  0  0  0  0  0  0  0  0  0  0
    4.9513   -1.9129   -0.5543 H   0  0  0  0  0  0  0  0  0  0  0  0
    5.4596   -0.9078   -1.9326 H   0  0  0  0  0  0  0  0  0  0  0  0
    7.3207   -1.6155   -0.6130 H   0  0  0  0  0  0  0  0  0  0  0  0
    5.0494   -0.3107    1.8960 H   0  0  0  0  0  0  0  0  0  0  0  0
    2.6346    0.1943    2.4438 H   0  0  0  0  0  0  0  0  0  0  0  0
   -3.2444   -2.0312    0.0048 H   0  0  0  0  0  0  0  0  0  0  0  0
   -5.1136    0.3161   -0.3911 H   0  0  0  0  0  0  0  0  0  0  0  0
   -6.7003   -1.4109   -1.3574 H   0  0  0  0  0  0  0  0  0  0  0  0
   -5.4490   -2.7311   -1.0524 H   0  0  0  0  0  0  0  0  0  0  0  0
   -5.5022   -2.2083    1.4291 H   0  0  0  0  0  0  0  0  0  0  0  0
   -6.7535   -0.8881    1.1242 H   0  0  0  0  0  0  0  0  0  0  0  0
  1  2  1  0  0  0  0
  1 22  1  0  0  0  0
  1 23  1  0  0  0  0
  2  3  2  0  0  0  0
  2 21  1  0  0  0  0
  3  4  1  0  0  0  0
  4  5  2  0  0  0  0
  4  8  1  0  0  0  0
  5  6  1  0  0  0  0
  5 16  1  0  0  0  0
  6  7  2  0  0  0  0
  7  8  1  0  0  0  0
  7 24  1  0  0  0  0
  8  9  1  0  0  0  0
  9 10  1  0  0  0  0
  9 15  1  0  0  0  0
  9 25  1  0  0  0  0
 10 11  1  0  0  0  0
 10 26  1  0  0  0  0
 10 27  1  0  0  0  0
 11 12  1  0  0  0  0
 11 14  1  0  0  0  0
 11 28  1  0  0  0  0
 12 13  1  0  0  0  0
 12 29  1  0  0  0  0
 12 30  1  0  0  0  0
 13 31  1  0  0  0  0
 14 15  2  0  0  0  0
 14 32  1  0  0  0  0
 15 33  1  0  0  0  0
 16 17  1  0  0  0  0
 16 21  2  0  0  0  0
 17 18  1  0  0  0  0
 17 34  1  0  0  0  0
 18 19  1  0  0  0  0
 18 20  1  0  0  0  0
 18 35  1  0  0  0  0
 19 20  1  0  0  0  0
 19 36  1  0  0  0  0
 19 37  1  0  0  0  0
 20 38  1  0  0  0  0
 20 39  1  0  0  0  0
M  END
>  <likely_enzyme_classes>
alcohol dehydrogenase; amine dehydrogenase

>  <activity>
-10

>  <molID>
mol000126

>  <name>
abacavir

>  <reference>
Prasse et al. (2015)

>  <speciation_state_pH7.4>
neutral

>  <substance_type>
antiviral drug

>  <smiles>
N=c1nc2c(ncn2[C@H]2C=C[C@@H](CO)C2)c(NC2CC2)[nH]1

>  <inchi>
InChI=1S/C14H18N6O/c15-14-18-12(17-9-2-3-9)11-13(19-14)20(7-16-11)10-4-1-8(5-10)6-21/h1,4,7-10,21H,2-3,5-6H2,(H3,15,17,18,19)/t8-,10+/m1/s1

>  <inchikey>
MCGSCOLBFJQGHM-SCZZXKLOSA-N

$$$$

emcorina  05091710353D 1   1.00000     0.00000 
CORINA evaluation license 3.49 0066  11.04.2013
 27 28  0  0  0  0  0  0  0  0999 V2000
   -1.5973   -1.3393    0.0347 N   0  0  0  0  0  0  0  0  0  0  0  0
   -2.9099   -1.3175    0.0987 C   0  0  0  0  0  0  0  0  0  0  0  0
   -3.6120   -0.1492    0.0949 N   0  0  0  0  0  0  0  0  0  0  0  0
   -2.9654    1.0354    0.0246 C   0  0  0  0  0  0  0  0  0  0  0  0
   -3.5843    2.0858    0.0210 O   0  0  0  0  0  0  0  0  0  0  0  0
   -0.8894   -0.2060   -0.0370 C   0  0  0  0  0  0  0  0  0  0  0  0
   -1.5525    1.0264   -0.0443 C   0  0  0  0  0  0  0  0  0  0  0  0
    0.4465    0.0813   -0.1129 N   0  0  0  0  0  0  0  0  0  0  0  0
   -0.6052    1.9924   -0.1231 N   0  0  0  0  0  0  0  0  0  0  0  0
    1.5420   -0.8912   -0.1356 C   0  0  0  0  0  0  0  0  0  0  0  0
    0.5716    1.4394   -0.1636 C   0  0  0  0  0  0  0  0  0  0  0  0
    2.7902   -0.2007   -0.2203 O   0  0  0  0  0  0  0  0  0  0  0  0
    3.9301   -1.0620   -0.2489 C   0  0  0  0  0  0  0  0  0  0  0  0
    5.2039   -0.2193   -0.3399 C   0  0  0  0  0  0  0  0  0  0  0  0
    5.3470    0.5579    0.8508 O   0  0  0  0  0  0  0  0  0  0  0  0
   -3.5933   -2.5053    0.1710 N   0  0  0  0  0  0  0  0  0  0  0  0
   -4.5806   -0.1682    0.1426 H   0  0  0  0  0  0  0  0  0  0  0  0
    1.5177   -1.4872    0.7767 H   0  0  0  0  0  0  0  0  0  0  0  0
    1.4292   -1.5454   -1.0001 H   0  0  0  0  0  0  0  0  0  0  0  0
    1.5074    1.9748   -0.2277 H   0  0  0  0  0  0  0  0  0  0  0  0
    3.9554   -1.6615    0.6611 H   0  0  0  0  0  0  0  0  0  0  0  0
    3.8669   -1.7197   -1.1157 H   0  0  0  0  0  0  0  0  0  0  0  0
    6.0668   -0.8759   -0.4510 H   0  0  0  0  0  0  0  0  0  0  0  0
    5.1393    0.4449   -1.2017 H   0  0  0  0  0  0  0  0  0  0  0  0
    6.1352    1.1180    0.8625 H   0  0  0  0  0  0  0  0  0  0  0  0
   -3.1075   -3.3449    0.1743 H   0  0  0  0  0  0  0  0  0  0  0  0
   -4.5621   -2.5053    0.2187 H   0  0  0  0  0  0  0  0  0  0  0  0
  1  2  2  0  0  0  0
  1  6  1  0  0  0  0
  2  3  1  0  0  0  0
  2 16  1  0  0  0  0
  3  4  1  0  0  0  0
  3 17  1  0  0  0  0
  4  5  2  0  0  0  0
  4  7  1  0  0  0  0
  6  7  2  0  0  0  0
  6  8  1  0  0  0  0
  7  9  1  0  0  0  0
  8 10  1  0  0  0  0
  8 11  1  0  0  0  0
  9 11  2  0  0  0  0
 10 12  1  0  0  0  0
 10 18  1  0  0  0  0
 10 19  1  0  0  0  0
 11 20  1  0  0  0  0
 12 13  1  0  0  0  0
 13 14  1  0  0  0  0
 13 21  1  0  0  0  0
 13 22  1  0  0  0  0
 14 15  1  0  0  0  0
 14 23  1  0  0  0  0
 14 24  1  0  0  0  0
 15 25  1  0  0  0  0
 16 26  1  0  0  0  0
 16 27  1  0  0  0  0
M  END
>  <likely_enzyme_classes>
alcohol dehydrogenase; amine dehydrogenase; monooxygenase

>  <activity>
-9.9

>  <molID>
mol000127

>  <name>
acyclovir

>  <reference>
Prasse et al. (2015)

>  <speciation_state_pH7.4>
neutral

>  <substance_type>
antiviral drug

>  <smiles>
N=c1nc(O)c2ncn(COCCO)c2[nH]1

>  <inchi>
InChI=1S/C8H11N5O3/c9-8-11-6-5(7(15)12-8)10-3-13(6)4-16-2-1-14/h3,14H,1-2,4H2,(H3,9,11,12,15)

>  <inchikey>
MKUXAQIIEYXACX-UHFFFAOYSA-N

$$$$

emcorina  05091710353D 1   1.00000     0.00000 
CORINA evaluation license 3.49 0066  11.04.2013
  9  8  0  0  0  0  0  0  0  0999 V2000
    1.2854   -0.2499   -0.0000 C   0  0  0  0  0  0  0  0  0  0  0  0
   -0.0072    0.5687   -0.0000 C   0  0  0  0  0  0  0  0  0  0  0  0
   -1.1304   -0.3147    0.0000 O   0  0  0  0  0  0  0  0  0  0  0  0
    1.3175   -0.8784    0.8900 H   0  0  0  0  0  0  0  0  0  0  0  0
    1.3175   -0.8784   -0.8900 H   0  0  0  0  0  0  0  0  0  0  0  0
    2.1422    0.4239   -0.0000 H   0  0  0  0  0  0  0  0  0  0  0  0
   -0.0392    1.1972    0.8900 H   0  0  0  0  0  0  0  0  0  0  0  0
   -0.0392    1.1972   -0.8900 H   0  0  0  0  0  0  0  0  0  0  0  0
   -1.9857    0.1365    0.0000 H   0  0  0  0  0  0  0  0  0  0  0  0
  1  2  1  0  0  0  0
  1  4  1  0  0  0  0
  1  5  1  0  0  0  0
  1  6  1  0  0  0  0
  2  3  1  0  0  0  0
  2  7  1  0  0  0  0
  2  8  1  0  0  0  0
  3  9  1  0  0  0  0
M  END
>  <likely_enzyme_classes>
alcohol dehydrogenase

>  <activity>
-9.8

>  <molID>
mol000129

>  <name>
ethanol

>  <reference>
Mackay handbook of physical-chemical properties

>  <speciation_state_pH7.4>
neutral

>  <substance_type>
chemical substance

>  <smiles>
CCO

>  <inchi>
InChI=1S/C2H6O/c1-2-3/h3H,2H2,1H3

>  <inchikey>
LFQSCWFLJHTTHZ-UHFFFAOYSA-N

$$$$

emcorina  05091710353D 1   1.00000     0.00000 
CORINA evaluation license 3.49 0066  11.04.2013
 15 14  0  0  0  0  0  0  0  0999 V2000
   -0.6408    1.4374   -0.1446 C   0  0  0  0  0  0  0  0  0  0  0  0
   -0.5002   -0.0012    0.3571 C   0  0  0  0  0  0  0  0  0  0  0  0
   -1.7542   -0.7955   -0.0138 C   0  0  0  0  0  0  0  0  0  0  0  0
    0.7246   -0.6498   -0.2909 C   0  0  0  0  0  0  0  0  0  0  0  0
    1.9074    0.0211    0.1485 O   0  0  0  0  0  0  0  0  0  0  0  0
    0.2525    2.0033    0.1196 H   0  0  0  0  0  0  0  0  0  0  0  0
   -0.7618    1.4342   -1.2279 H   0  0  0  0  0  0  0  0  0  0  0  0
   -1.5135    1.8995    0.3170 H   0  0  0  0  0  0  0  0  0  0  0  0
   -0.3793    0.0020    1.4404 H   0  0  0  0  0  0  0  0  0  0  0  0
   -1.8751   -0.7987   -1.0970 H   0  0  0  0  0  0  0  0  0  0  0  0
   -1.6540   -1.8204    0.3437 H   0  0  0  0  0  0  0  0  0  0  0  0
   -2.6268   -0.3334    0.4479 H   0  0  0  0  0  0  0  0  0  0  0  0
    0.7745   -1.7000   -0.0032 H   0  0  0  0  0  0  0  0  0  0  0  0
    0.6452   -0.5736   -1.3753 H   0  0  0  0  0  0  0  0  0  0  0  0
    2.7245   -0.3382   -0.2235 H   0  0  0  0  0  0  0  0  0  0  0  0
  1  2  1  0  0  0  0
  1  6  1  0  0  0  0
  1  7  1  0  0  0  0
  1  8  1  0  0  0  0
  2  3  1  0  0  0  0
  2  4  1  0  0  0  0
  2  9  1  0  0  0  0
  3 10  1  0  0  0  0
  3 11  1  0  0  0  0
  3 12  1  0  0  0  0
  4  5  1  0  0  0  0
  4 13  1  0  0  0  0
  4 14  1  0  0  0  0
  5 15  1  0  0  0  0
M  END
>  <likely_enzyme_classes>
alcohol dehydrogenase

>  <activity>
-9.9

>  <molID>
mol000131

>  <name>
Isobutanol

>  <reference>
Mackay handbook of physical-chemical properties

>  <speciation_state_pH7.4>
neutral

>  <substance_type>
chemical substance

>  <smiles>
CC(C)CO

>  <inchi>
InChI=1S/C4H10O/c1-4(2)3-5/h4-5H,3H2,1-2H3

>  <inchikey>
ZXEKIIBDNHEJCQ-UHFFFAOYSA-N

$$$$

emcorina  05091710353D 1   1.00000     0.00000 
CORINA evaluation license 3.49 0066  11.04.2013
 26 27  0  0  0  0  0  0  0  0999 V2000
    4.7462   -1.0380    0.4493 N   0  0  0  0  0  0  0  0  0  0  0  0
    3.4525   -0.6500    0.1881 C   0  0  0  0  0  0  0  0  0  0  0  0
    3.1514    0.6373    0.0784 N   0  0  0  0  0  0  0  0  0  0  0  0
    1.9024    1.0243   -0.1749 C   0  0  0  0  0  0  0  0  0  0  0  0
    1.6509    2.2140   -0.2716 O   0  0  0  0  0  0  0  0  0  0  0  0
    0.9135    0.1244   -0.3262 N   0  0  0  0  0  0  0  0  0  0  0  0
    1.1742   -1.2091   -0.2219 C   0  0  0  0  0  0  0  0  0  0  0  0
    2.4401   -1.6186    0.0295 C   0  0  0  0  0  0  0  0  0  0  0  0
   -0.4507    0.5806   -0.6042 C   0  0  0  0  0  0  0  0  0  0  0  0
   -0.9387    1.4849    0.5541 C   0  0  0  0  0  0  0  0  0  0  0  0
   -2.7411    1.1334    0.5867 S   0  0  0  0  0  0  0  0  0  0  0  0
   -2.7021   -0.1196   -0.7570 C   0  0  0  0  0  0  0  0  0  0  0  0
   -3.6480   -1.2818   -0.4479 C   0  0  0  0  0  0  0  0  0  0  0  0
   -3.2717   -1.8855    0.7914 O   0  0  0  0  0  0  0  0  0  0  0  0
   -1.3195   -0.5544   -0.7237 O   0  0  0  0  0  0  0  0  0  0  0  0
    5.4413   -0.3695    0.5539 H   0  0  0  0  0  0  0  0  0  0  0  0
    4.9626   -1.9798    0.5329 H   0  0  0  0  0  0  0  0  0  0  0  0
    0.3806   -1.9315   -0.3429 H   0  0  0  0  0  0  0  0  0  0  0  0
    2.6692   -2.6705    0.1162 H   0  0  0  0  0  0  0  0  0  0  0  0
   -0.4620    1.1458   -1.5361 H   0  0  0  0  0  0  0  0  0  0  0  0
   -0.4700    1.1972    1.4952 H   0  0  0  0  0  0  0  0  0  0  0  0
   -0.7520    2.5355    0.3315 H   0  0  0  0  0  0  0  0  0  0  0  0
   -2.9454    0.3328   -1.7183 H   0  0  0  0  0  0  0  0  0  0  0  0
   -4.6697   -0.9092   -0.3752 H   0  0  0  0  0  0  0  0  0  0  0  0
   -3.5871   -2.0219   -1.2458 H   0  0  0  0  0  0  0  0  0  0  0  0
   -3.8297   -2.6315    1.0509 H   0  0  0  0  0  0  0  0  0  0  0  0
  1  2  1  0  0  0  0
  1 16  1  0  0  0  0
  1 17  1  0  0  0  0
  2  3  2  0  0  0  0
  2  8  1  0  0  0  0
  3  4  1  0  0  0  0
  4  5  2  0  0  0  0
  4  6  1  0  0  0  0
  6  7  1  0  0  0  0
  6  9  1  0  0  0  0
  7  8  2  0  0  0  0
  7 18  1  0  0  0  0
  8 19  1  0  0  0  0
  9 10  1  0  0  0  0
  9 15  1  0  0  0  0
  9 20  1  0  0  0  0
 10 11  1  0  0  0  0
 10 21  1  0  0  0  0
 10 22  1  0  0  0  0
 11 12  1  0  0  0  0
 12 13  1  0  0  0  0
 12 15  1  0  0  0  0
 12 23  1  0  0  0  0
 13 14  1  0  0  0  0
 13 24  1  0  0  0  0
 13 25  1  0  0  0  0
 14 26  1  0  0  0  0
M  END
>  <likely_enzyme_classes>
alcohol dehydrogenase; monooxygenase; amine dehydrogenase

>  <activity>
-10.1

>  <molID>
mol000133

>  <name>
lamivudine

>  <reference>
Prasse et al. (2015)

>  <speciation_state_pH7.4>
neutral

>  <substance_type>
antiviral drug

>  <smiles>
N=c1ccn([C@@H]2CS[C@H](CO)O2)c(O)n1

>  <inchi>
InChI=1S/C8H11N3O3S/c9-5-1-2-11(8(13)10-5)6-4-15-7(3-12)14-6/h1-2,6-7,12H,3-4H2,(H2,9,10,13)/t6-,7+/m0/s1

>  <inchikey>
JTEGQNOMFQHVDC-NKWVEPMBSA-N

$$$$

emcorina  05091710353D 1   1.00000     0.00000 
CORINA evaluation license 3.49 0066  11.04.2013
  6  5  0  0  0  0  0  0  0  0999 V2000
    0.7370   -0.0147   -0.0000 C   0  0  0  0  0  0  0  0  0  0  0  0
   -0.6896    0.0677    0.0000 O   0  0  0  0  0  0  0  0  0  0  0  0
    1.0701   -0.5487    0.8900 H   0  0  0  0  0  0  0  0  0  0  0  0
    1.0701   -0.5487   -0.8900 H   0  0  0  0  0  0  0  0  0  0  0  0
    1.1590    0.9902   -0.0000 H   0  0  0  0  0  0  0  0  0  0  0  0
   -1.1333   -0.7916    0.0000 H   0  0  0  0  0  0  0  0  0  0  0  0
  1  2  1  0  0  0  0
  1  3  1  0  0  0  0
  1  4  1  0  0  0  0
  1  5  1  0  0  0  0
  2  6  1  0  0  0  0
M  END
>  <likely_enzyme_classes>
alcohol dehydrogenase

>  <activity>
-9.4

>  <molID>
mol000134

>  <name>
methanol

>  <reference>
Howard: Handbook of Environmental Degradation Rates; Capel and Larson (1995); Mackay handbook

>  <speciation_state_pH7.4>
neutral

>  <substance_type>
chemical substance

>  <smiles>
CO

>  <inchi>
InChI=1S/CH4O/c1-2/h2H,1H3

>  <inchikey>
OKKJLVBELUTLKV-UHFFFAOYSA-N

$$$$

emcorina  05091710353D 1   1.00000     0.00000 
CORINA evaluation license 3.49 0066  11.04.2013
 15 14  0  0  0  0  0  0  0  0999 V2000
    2.5511   -0.3199    0.0000 C   0  0  0  0  0  0  0  0  0  0  0  0
    1.2871    0.5422   -0.0000 C   0  0  0  0  0  0  0  0  0  0  0  0
    0.0529   -0.3621    0.0000 C   0  0  0  0  0  0  0  0  0  0  0  0
   -1.2110    0.5000   -0.0000 C   0  0  0  0  0  0  0  0  0  0  0  0
   -2.3637   -0.3447    0.0000 O   0  0  0  0  0  0  0  0  0  0  0  0
    3.4303    0.3244   -0.0000 H   0  0  0  0  0  0  0  0  0  0  0  0
    2.5617   -0.9491    0.8900 H   0  0  0  0  0  0  0  0  0  0  0  0
    2.5617   -0.9491   -0.8900 H   0  0  0  0  0  0  0  0  0  0  0  0
    1.2764    1.1714    0.8900 H   0  0  0  0  0  0  0  0  0  0  0  0
    1.2764    1.1714   -0.8900 H   0  0  0  0  0  0  0  0  0  0  0  0
    0.0636   -0.9914   -0.8900 H   0  0  0  0  0  0  0  0  0  0  0  0
    0.0636   -0.9913    0.8900 H   0  0  0  0  0  0  0  0  0  0  0  0
   -1.2217    1.1292    0.8900 H   0  0  0  0  0  0  0  0  0  0  0  0
   -1.2217    1.1292   -0.8900 H   0  0  0  0  0  0  0  0  0  0  0  0
   -3.2031    0.1354   -0.0000 H   0  0  0  0  0  0  0  0  0  0  0  0
  1  2  1  0  0  0  0
  1  6  1  0  0  0  0
  1  7  1  0  0  0  0
  1  8  1  0  0  0  0
  2  3  1  0  0  0  0
  2  9  1  0  0  0  0
  2 10  1  0  0  0  0
  3  4  1  0  0  0  0
  3 11  1  0  0  0  0
  3 12  1  0  0  0  0
  4  5  1  0  0  0  0
  4 13  1  0  0  0  0
  4 14  1  0  0  0  0
  5 15  1  0  0  0  0
M  END
>  <likely_enzyme_classes>
alcohol dehydrogenase

>  <activity>
-9.8

>  <molID>
mol000135

>  <name>
n-butanol

>  <reference>
Mackay handbook of physical-chemical properties

>  <speciation_state_pH7.4>
neutral

>  <substance_type>
chemical substance

>  <smiles>
CCCCO

>  <inchi>
InChI=1S/C4H10O/c1-2-3-4-5/h5H,2-4H2,1H3

>  <inchikey>
LRHPLDYGYMQRHN-UHFFFAOYSA-N

$$$$

emcorina  05091710353D 1   1.00000     0.00000 
CORINA evaluation license 3.49 0066  11.04.2013
 15 14  0  0  0  0  0  0  0  0999 V2000
    2.0494   -0.0031    0.1324 C   0  0  0  0  0  0  0  0  0  0  0  0
    0.7644    0.7052   -0.3014 C   0  0  0  0  0  0  0  0  0  0  0  0
   -0.4407    0.0113    0.3367 C   0  0  0  0  0  0  0  0  0  0  0  0
   -1.7137    0.7924    0.0048 C   0  0  0  0  0  0  0  0  0  0  0  0
   -0.5507   -1.3184   -0.1750 O   0  0  0  0  0  0  0  0  0  0  0  0
    2.1387    0.0389    1.2179 H   0  0  0  0  0  0  0  0  0  0  0  0
    2.0170   -1.0439   -0.1895 H   0  0  0  0  0  0  0  0  0  0  0  0
    2.9079    0.4913   -0.3222 H   0  0  0  0  0  0  0  0  0  0  0  0
    0.7968    1.7461    0.0205 H   0  0  0  0  0  0  0  0  0  0  0  0
    0.6751    0.6632   -1.3869 H   0  0  0  0  0  0  0  0  0  0  0  0
   -0.3084   -0.0252    1.4180 H   0  0  0  0  0  0  0  0  0  0  0  0
   -2.5722    0.2981    0.4594 H   0  0  0  0  0  0  0  0  0  0  0  0
   -1.6297    1.8067    0.3950 H   0  0  0  0  0  0  0  0  0  0  0  0
   -1.8460    0.8290   -1.0766 H   0  0  0  0  0  0  0  0  0  0  0  0
   -1.2950   -1.8187    0.1868 H   0  0  0  0  0  0  0  0  0  0  0  0
  1  2  1  0  0  0  0
  1  6  1  0  0  0  0
  1  7  1  0  0  0  0
  1  8  1  0  0  0  0
  2  3  1  0  0  0  0
  2  9  1  0  0  0  0
  2 10  1  0  0  0  0
  3  4  1  0  0  0  0
  3  5  1  0  0  0  0
  3 11  1  0  0  0  0
  4 12  1  0  0  0  0
  4 13  1  0  0  0  0
  4 14  1  0  0  0  0
  5 15  1  0  0  0  0
M  END
>  <likely_enzyme_classes>
alcohol dehydrogenase

>  <activity>
-9.8

>  <molID>
mol000136

>  <name>
sec-butyl alcohol

>  <reference>
Mackay handbook of physical-chemical properties

>  <speciation_state_pH7.4>
neutral

>  <substance_type>
chemical substance

>  <smiles>
CCC(C)O

>  <inchi>
InChI=1S/C4H10O/c1-3-4(2)5/h4-5H,3H2,1-2H3

>  <inchikey>
BTANRVKWQNVYAZ-UHFFFAOYSA-N

$$$$

emcorina  05091710353D 1   1.00000     0.00000 
CORINA evaluation license 3.49 0066  11.04.2013
 32 33  0  0  0  0  0  0  0  0999 V2000
    4.6824   -0.4256   -1.6131 C   0  0  0  0  0  0  0  0  0  0  0  0
    3.4743   -0.2289   -0.7341 C   0  0  0  0  0  0  0  0  0  0  0  0
    2.2414   -0.1351   -1.2767 C   0  0  0  0  0  0  0  0  0  0  0  0
    1.1551    0.0429   -0.4639 N   0  0  0  0  0  0  0  0  0  0  0  0
   -0.1826    0.1447   -1.0525 C   0  0  0  0  0  0  0  0  0  0  0  0
   -1.0433   -1.0536   -0.6076 C   0  0  0  0  0  0  0  0  0  0  0  0
   -2.2556   -0.4062    0.1051 C   0  0  0  0  0  0  0  0  0  0  0  0
   -3.4986   -1.0976   -0.2457 N   0  0  0  0  0  0  0  0  0  0  0  0
   -3.6637   -2.1593    0.0845 N   0  3  0  0  0  0  0  0  0  0  0  0
   -3.8287   -3.2209    0.4147 N   0  5  0  0  0  0  0  0  0  0  0  0
   -2.2411    1.0323   -0.4716 C   0  0  0  0  0  0  0  0  0  0  0  0
   -2.9287    2.0048    0.4888 C   0  0  0  0  0  0  0  0  0  0  0  0
   -3.0052    3.2973   -0.1159 O   0  0  0  0  0  0  0  0  0  0  0  0
   -0.8341    1.3367   -0.5823 O   0  0  0  0  0  0  0  0  0  0  0  0
    1.3039    0.1250    0.8707 C   0  0  0  0  0  0  0  0  0  0  0  0
    0.3250    0.2830    1.5744 O   0  0  0  0  0  0  0  0  0  0  0  0
    2.5211    0.0343    1.4380 N   0  0  0  0  0  0  0  0  0  0  0  0
    3.6161   -0.1458    0.6721 C   0  0  0  0  0  0  0  0  0  0  0  0
    4.7178   -0.2280    1.1845 O   0  0  0  0  0  0  0  0  0  0  0  0
    5.0845    0.5458   -1.9008 H   0  0  0  0  0  0  0  0  0  0  0  0
    5.4415   -0.9859   -1.0673 H   0  0  0  0  0  0  0  0  0  0  0  0
    4.3951   -0.9791   -2.5071 H   0  0  0  0  0  0  0  0  0  0  0  0
    2.1134   -0.2000   -2.3471 H   0  0  0  0  0  0  0  0  0  0  0  0
   -0.1084    0.1644   -2.1398 H   0  0  0  0  0  0  0  0  0  0  0  0
   -1.3722   -1.6292   -1.4729 H   0  0  0  0  0  0  0  0  0  0  0  0
   -0.4875   -1.6867    0.0840 H   0  0  0  0  0  0  0  0  0  0  0  0
   -2.1108   -0.3943    1.1854 H   0  0  0  0  0  0  0  0  0  0  0  0
   -2.7200    1.0583   -1.4504 H   0  0  0  0  0  0  0  0  0  0  0  0
   -3.9343    1.6470    0.7099 H   0  0  0  0  0  0  0  0  0  0  0  0
   -2.3547    2.0694    1.4131 H   0  0  0  0  0  0  0  0  0  0  0  0
   -3.4306    3.9661    0.4381 H   0  0  0  0  0  0  0  0  0  0  0  0
    2.6106    0.0956    2.4020 H   0  0  0  0  0  0  0  0  0  0  0  0
  1  2  1  0  0  0  0
  1 20  1  0  0  0  0
  1 21  1  0  0  0  0
  1 22  1  0  0  0  0
  2  3  2  0  0  0  0
  2 18  1  0  0  0  0
  3  4  1  0  0  0  0
  3 23  1  0  0  0  0
  4  5  1  0  0  0  0
  4 15  1  0  0  0  0
  5  6  1  0  0  0  0
  5 14  1  0  0  0  0
  5 24  1  0  0  0  0
  6  7  1  0  0  0  0
  6 25  1  0  0  0  0
  6 26  1  0  0  0  0
  7  8  1  0  0  0  0
  7 11  1  0  0  0  0
  7 27  1  0  0  0  0
  8  9  2  0  0  0  0
  9 10  2  0  0  0  0
 11 12  1  0  0  0  0
 11 14  1  0  0  0  0
 11 28  1  0  0  0  0
 12 13  1  0  0  0  0
 12 29  1  0  0  0  0
 12 30  1  0  0  0  0
 13 31  1  0  0  0  0
 15 16  2  0  0  0  0
 15 17  1  0  0  0  0
 17 18  1  0  0  0  0
 17 32  1  0  0  0  0
 18 19  2  0  0  0  0
M  CHG  2   9   1  10  -1
M  END
>  <likely_enzyme_classes>
alcohol dehydrogenase; amine dehydrogenase

>  <activity>
-10.1

>  <molID>
mol000137

>  <name>
zidovudine

>  <reference>
Prasse et al. (2015)

>  <speciation_state_pH7.4>
neutral

>  <substance_type>
antiviral drug

>  <smiles>
Cc1cn([C@H]2C[C@H](N=[N+]=[N-])[C@@H](CO)O2)c(=O)nc1O

>  <inchi>
InChI=1S/C10H13N5O4/c1-5-3-15(10(18)12-9(5)17)8-2-6(13-14-11)7(4-16)19-8/h3,6-8,16H,2,4H2,1H3,(H,12,17,18)/t6-,7+,8+/m0/s1

>  <inchikey>
HBOMLICNUCNMMY-XLPZGREQSA-N

$$$$

emcorina  05091710353D 1   1.00000     0.00000 
CORINA evaluation license 3.49 0066  11.04.2013
 56 59  0  0  0  0  0  0  0  0999 V2000
    7.7823    1.3149   -0.6746 O   0  0  0  0  0  0  0  0  0  0  0  0
    7.3521    0.2928   -1.5759 C   0  0  0  0  0  0  0  0  0  0  0  0
    6.8582   -0.9157   -0.7781 C   0  0  0  0  0  0  0  0  0  0  0  0
    5.6919   -0.5280    0.0265 N   0  0  0  0  0  0  0  0  0  0  0  0
    5.1329   -1.6870    0.7363 C   0  0  0  0  0  0  0  0  0  0  0  0
    3.9725   -1.2280    1.6224 C   0  0  0  0  0  0  0  0  0  0  0  0
    2.9495   -0.5808    0.7892 N   0  0  0  0  0  0  0  0  0  0  0  0
    1.7832   -0.1931    1.5938 C   0  0  0  0  0  0  0  0  0  0  0  0
    0.6471    0.2447    0.6672 C   0  0  0  0  0  0  0  0  0  0  0  0
   -0.5676    0.6485    1.5052 C   0  0  0  0  0  0  0  0  0  0  0  0
   -1.6554    1.0677    0.6179 N   0  0  0  0  0  0  0  0  0  0  0  0
   -1.7209    2.4127    0.2620 C   0  0  0  0  0  0  0  0  0  0  0  0
   -0.5567    3.1727    0.2999 C   0  0  0  0  0  0  0  0  0  0  0  0
   -0.5854    4.5116   -0.0423 C   0  0  0  0  0  0  0  0  0  0  0  0
   -1.7729    5.1051   -0.4251 C   0  0  0  0  0  0  0  0  0  0  0  0
   -2.9359    4.3580   -0.4684 C   0  0  0  0  0  0  0  0  0  0  0  0
   -2.9150    3.0124   -0.1272 C   0  0  0  0  0  0  0  0  0  0  0  0
   -4.4081    2.0822   -0.1935 S   0  0  0  0  0  0  0  0  0  0  0  0
   -3.8491    0.4130   -0.2085 C   0  0  0  0  0  0  0  0  0  0  0  0
   -2.5505    0.0930    0.1833 C   0  0  0  0  0  0  0  0  0  0  0  0
   -2.1375   -1.2351    0.1560 C   0  0  0  0  0  0  0  0  0  0  0  0
   -3.0069   -2.2283   -0.2527 C   0  0  0  0  0  0  0  0  0  0  0  0
   -4.2951   -1.9084   -0.6378 C   0  0  0  0  0  0  0  0  0  0  0  0
   -4.7154   -0.5911   -0.6204 C   0  0  0  0  0  0  0  0  0  0  0  0
   -2.5492   -3.6639   -0.2790 C   0  0  0  0  0  0  0  0  0  0  0  0
   -2.8172   -4.2615    0.9572 F   0  0  0  0  0  0  0  0  0  0  0  0
   -3.2316   -4.3525   -1.2877 F   0  0  0  0  0  0  0  0  0  0  0  0
   -1.1739   -3.7103   -0.5310 F   0  0  0  0  0  0  0  0  0  0  0  0
    3.5085    0.5782    0.0794 C   0  0  0  0  0  0  0  0  0  0  0  0
    4.6689    0.1193   -0.8068 C   0  0  0  0  0  0  0  0  0  0  0  0
    8.1092    2.1130   -1.1121 H   0  0  0  0  0  0  0  0  0  0  0  0
    6.5416    0.6739   -2.1972 H   0  0  0  0  0  0  0  0  0  0  0  0
    8.1862   -0.0068   -2.2103 H   0  0  0  0  0  0  0  0  0  0  0  0
    6.5767   -1.7140   -1.4649 H   0  0  0  0  0  0  0  0  0  0  0  0
    7.6533   -1.2662   -0.1200 H   0  0  0  0  0  0  0  0  0  0  0  0
    4.7710   -2.4169    0.0122 H   0  0  0  0  0  0  0  0  0  0  0  0
    5.9060   -2.1414    1.3559 H   0  0  0  0  0  0  0  0  0  0  0  0
    3.5377   -2.0904    2.1277 H   0  0  0  0  0  0  0  0  0  0  0  0
    4.3397   -0.5186    2.3640 H   0  0  0  0  0  0  0  0  0  0  0  0
    1.4564   -1.0429    2.1929 H   0  0  0  0  0  0  0  0  0  0  0  0
    2.0540    0.6327    2.2518 H   0  0  0  0  0  0  0  0  0  0  0  0
    0.9740    1.0945    0.0680 H   0  0  0  0  0  0  0  0  0  0  0  0
    0.3763   -0.5811    0.0092 H   0  0  0  0  0  0  0  0  0  0  0  0
   -0.8944   -0.2013    2.1043 H   0  0  0  0  0  0  0  0  0  0  0  0
   -0.2968    1.4743    2.1631 H   0  0  0  0  0  0  0  0  0  0  0  0
    0.3745    2.7144    0.5986 H   0  0  0  0  0  0  0  0  0  0  0  0
    0.3226    5.0954   -0.0101 H   0  0  0  0  0  0  0  0  0  0  0  0
   -1.7930    6.1519   -0.6901 H   0  0  0  0  0  0  0  0  0  0  0  0
   -3.8634    4.8228   -0.7686 H   0  0  0  0  0  0  0  0  0  0  0  0
   -1.1320   -1.4912    0.4555 H   0  0  0  0  0  0  0  0  0  0  0  0
   -4.9731   -2.6867   -0.9555 H   0  0  0  0  0  0  0  0  0  0  0  0
   -5.7223   -0.3434   -0.9225 H   0  0  0  0  0  0  0  0  0  0  0  0
    2.7354    1.0326   -0.5403 H   0  0  0  0  0  0  0  0  0  0  0  0
    3.8704    1.3081    0.8034 H   0  0  0  0  0  0  0  0  0  0  0  0
    5.1037    0.9816   -1.3121 H   0  0  0  0  0  0  0  0  0  0  0  0
    4.3017   -0.5902   -1.5483 H   0  0  0  0  0  0  0  0  0  0  0  0
  1  2  1  0  0  0  0
  1 31  1  0  0  0  0
  2  3  1  0  0  0  0
  2 32  1  0  0  0  0
  2 33  1  0  0  0  0
  3  4  1  0  0  0  0
  3 34  1  0  0  0  0
  3 35  1  0  0  0  0
  4  5  1  0  0  0  0
  4 30  1  0  0  0  0
  5  6  1  0  0  0  0
  5 36  1  0  0  0  0
  5 37  1  0  0  0  0
  6  7  1  0  0  0  0
  6 38  1  0  0  0  0
  6 39  1  0  0  0  0
  7  8  1  0  0  0  0
  7 29  1  0  0  0  0
  8  9  1  0  0  0  0
  8 40  1  0  0  0  0
  8 41  1  0  0  0  0
  9 10  1  0  0  0  0
  9 42  1  0  0  0  0
  9 43  1  0  0  0  0
 10 11  1  0  0  0  0
 10 44  1  0  0  0  0
 10 45  1  0  0  0  0
 11 12  1  0  0  0  0
 11 20  1  0  0  0  0
 12 13  2  0  0  0  0
 12 17  1  0  0  0  0
 13 14  1  0  0  0  0
 13 46  1  0  0  0  0
 14 15  2  0  0  0  0
 14 47  1  0  0  0  0
 15 16  1  0  0  0  0
 15 48  1  0  0  0  0
 16 17  2  0  0  0  0
 16 49  1  0  0  0  0
 17 18  1  0  0  0  0
 18 19  1  0  0  0  0
 19 20  2  0  0  0  0
 19 24  1  0  0  0  0
 20 21  1  0  0  0  0
 21 22  2  0  0  0  0
 21 50  1  0  0  0  0
 22 23  1  0  0  0  0
 22 25  1  0  0  0  0
 23 24  2  0  0  0  0
 23 51  1  0  0  0  0
 24 52  1  0  0  0  0
 25 26  1  0  0  0  0
 25 27  1  0  0  0  0
 25 28  1  0  0  0  0
 29 30  1  0  0  0  0
 29 53  1  0  0  0  0
 29 54  1  0  0  0  0
 30 55  1  0  0  0  0
 30 56  1  0  0  0  0
M  END
>  <likely_enzyme_classes>
alcohol dehydrogenase; amine dehydrogenase; dioxygenase; monooxygenase

>  <activity>
-11.7

>  <molID>
mol000138

>  <name>
fluphenazine

>  <reference>
Tappin et al. (2016)

>  <speciation_state_pH7.4>
cationic

>  <substance_type>
antipsychotic drug

>  <smiles>
OCCN1CCN(CCCN2c3ccccc3Sc3ccc(C(F)(F)F)cc32)CC1

>  <inchi>
InChI=1S/C22H26F3N3OS/c23-22(24,25)17-6-7-21-19(16-17)28(18-4-1-2-5-20(18)30-21)9-3-8-26-10-12-27(13-11-26)14-15-29/h1-2,4-7,16,29H,3,8-15H2

>  <inchikey>
PLDUPXSUYLZYBN-UHFFFAOYSA-N

$$$$

emcorina  05091710353D 1   1.00000     0.00000 
CORINA evaluation license 3.49 0066  11.04.2013
 26 27  0  0  0  0  0  0  0  0999 V2000
    4.6129   -0.3341    0.4162 N   0  0  0  0  0  0  0  0  0  0  0  0
    3.2833   -0.0850    0.1632 C   0  0  0  0  0  0  0  0  0  0  0  0
    2.8440    1.1633    0.0729 N   0  0  0  0  0  0  0  0  0  0  0  0
    1.5597    1.4170   -0.1715 C   0  0  0  0  0  0  0  0  0  0  0  0
    1.1814    2.5742   -0.2502 O   0  0  0  0  0  0  0  0  0  0  0  0
    0.6723    0.4185   -0.3335 N   0  0  0  0  0  0  0  0  0  0  0  0
    1.0757   -0.8824   -0.2497 C   0  0  0  0  0  0  0  0  0  0  0  0
    2.3804   -1.1565   -0.0073 C   0  0  0  0  0  0  0  0  0  0  0  0
    2.8082   -2.4349    0.0805 F   0  0  0  0  0  0  0  0  0  0  0  0
   -0.7341    0.7296   -0.6008 C   0  0  0  0  0  0  0  0  0  0  0  0
   -1.3113    1.5595    0.5722 C   0  0  0  0  0  0  0  0  0  0  0  0
   -3.0653    1.0161    0.6044 S   0  0  0  0  0  0  0  0  0  0  0  0
   -2.8980   -0.2059   -0.7578 C   0  0  0  0  0  0  0  0  0  0  0  0
   -3.7124   -1.4672   -0.4635 C   0  0  0  0  0  0  0  0  0  0  0  0
   -3.2682   -2.0450    0.7657 O   0  0  0  0  0  0  0  0  0  0  0  0
   -1.4767   -0.4902   -0.7348 O   0  0  0  0  0  0  0  0  0  0  0  0
    5.2318    0.4042    0.5290 H   0  0  0  0  0  0  0  0  0  0  0  0
    4.9305   -1.2480    0.4857 H   0  0  0  0  0  0  0  0  0  0  0  0
    0.3640   -1.6843   -0.3792 H   0  0  0  0  0  0  0  0  0  0  0  0
   -0.8100    1.3039   -1.5242 H   0  0  0  0  0  0  0  0  0  0  0  0
   -0.8103    1.3100    1.5076 H   0  0  0  0  0  0  0  0  0  0  0  0
   -1.2394    2.6271    0.3647 H   0  0  0  0  0  0  0  0  0  0  0  0
   -3.1927    0.2317   -1.7117 H   0  0  0  0  0  0  0  0  0  0  0  0
   -4.7679   -1.2075   -0.3824 H   0  0  0  0  0  0  0  0  0  0  0  0
   -3.5760   -2.1848   -1.2725 H   0  0  0  0  0  0  0  0  0  0  0  0
   -3.7417   -2.8502    1.0156 H   0  0  0  0  0  0  0  0  0  0  0  0
  1  2  1  0  0  0  0
  1 17  1  0  0  0  0
  1 18  1  0  0  0  0
  2  3  2  0  0  0  0
  2  8  1  0  0  0  0
  3  4  1  0  0  0  0
  4  5  2  0  0  0  0
  4  6  1  0  0  0  0
  6  7  1  0  0  0  0
  6 10  1  0  0  0  0
  7  8  2  0  0  0  0
  7 19  1  0  0  0  0
  8  9  1  0  0  0  0
 10 11  1  0  0  0  0
 10 16  1  0  0  0  0
 10 20  1  0  0  0  0
 11 12  1  0  0  0  0
 11 21  1  0  0  0  0
 11 22  1  0  0  0  0
 12 13  1  0  0  0  0
 13 14  1  0  0  0  0
 13 16  1  0  0  0  0
 13 23  1  0  0  0  0
 14 15  1  0  0  0  0
 14 24  1  0  0  0  0
 14 25  1  0  0  0  0
 15 26  1  0  0  0  0
M  END
>  <likely_enzyme_classes>
alcohol dehydrogenase; monooxygenase; amine dehydrogenase

>  <activity>
-10.7

>  <molID>
mol000141

>  <name>
emtricitabine

>  <reference>
Prasse et al. (2015)

>  <speciation_state_pH7.4>
neutral

>  <substance_type>
antiviral drug

>  <smiles>
N=c1nc(O)n([C@@H]2CS[C@H](CO)O2)cc1F

>  <inchi>
InChI=1S/C8H10FN3O3S/c9-4-1-12(8(14)11-7(4)10)5-3-16-6(2-13)15-5/h1,5-6,13H,2-3H2,(H2,10,11,14)/t5-,6+/m0/s1

>  <inchikey>
XQSPYNMVSIKCOC-NTSWFWBYSA-N

$$$$

emcorina  05091710353D 1   1.00000     0.00000 
CORINA evaluation license 3.49 0066  11.04.2013
 24 25  0  0  0  0  0  0  0  0999 V2000
    3.2614    1.1612   -0.0055 C   0  0  0  0  0  0  0  0  0  0  0  0
    2.2862    0.0680   -0.0028 N   0  0  0  0  0  0  0  0  0  0  0  0
    2.5608   -1.2510   -0.0001 C   0  0  0  0  0  0  0  0  0  0  0  0
    1.4446   -1.9342    0.0022 N   0  0  0  0  0  0  0  0  0  0  0  0
    0.4027   -1.0988    0.0012 C   0  0  0  0  0  0  0  0  0  0  0  0
    0.9114    0.1939    0.0035 C   0  0  0  0  0  0  0  0  0  0  0  0
    0.0163    1.2853    0.0030 C   0  0  0  0  0  0  0  0  0  0  0  0
    0.4379    2.4280    0.0046 O   0  0  0  0  0  0  0  0  0  0  0  0
   -1.3120    1.0479    0.0003 N   0  0  0  0  0  0  0  0  0  0  0  0
   -2.2466    2.1761   -0.0007 C   0  0  0  0  0  0  0  0  0  0  0  0
   -1.7906   -0.2082   -0.0019 C   0  0  0  0  0  0  0  0  0  0  0  0
   -2.9938   -0.3839   -0.0047 O   0  0  0  0  0  0  0  0  0  0  0  0
   -0.9714   -1.2767    0.0026 N   0  0  0  0  0  0  0  0  0  0  0  0
   -1.5337   -2.6294    0.0000 C   0  0  0  0  0  0  0  0  0  0  0  0
    3.5026    1.4305   -1.0339 H   0  0  0  0  0  0  0  0  0  0  0  0
    2.8396    2.0258    0.5070 H   0  0  0  0  0  0  0  0  0  0  0  0
    4.1678    0.8409    0.5082 H   0  0  0  0  0  0  0  0  0  0  0  0
    3.5520   -1.6796   -0.0003 H   0  0  0  0  0  0  0  0  0  0  0  0
   -2.4764    2.4566   -1.0286 H   0  0  0  0  0  0  0  0  0  0  0  0
   -3.1647    1.8878    0.5111 H   0  0  0  0  0  0  0  0  0  0  0  0
   -1.7940    3.0233    0.5145 H   0  0  0  0  0  0  0  0  0  0  0  0
   -2.6221   -2.5704   -0.0057 H   0  0  0  0  0  0  0  0  0  0  0  0
   -1.1941   -3.1624   -0.8880 H   0  0  0  0  0  0  0  0  0  0  0  0
   -1.2034   -3.1619    0.8919 H   0  0  0  0  0  0  0  0  0  0  0  0
  1  2  1  0  0  0  0
  1 15  1  0  0  0  0
  1 16  1  0  0  0  0
  1 17  1  0  0  0  0
  2  3  1  0  0  0  0
  2  6  1  0  0  0  0
  3  4  2  0  0  0  0
  3 18  1  0  0  0  0
  4  5  1  0  0  0  0
  5  6  2  0  0  0  0
  5 13  1  0  0  0  0
  6  7  1  0  0  0  0
  7  8  2  0  0  0  0
  7  9  1  0  0  0  0
  9 10  1  0  0  0  0
  9 11  1  0  0  0  0
 10 19  1  0  0  0  0
 10 20  1  0  0  0  0
 10 21  1  0  0  0  0
 11 12  2  0  0  0  0
 11 13  1  0  0  0  0
 13 14  1  0  0  0  0
 14 22  1  0  0  0  0
 14 23  1  0  0  0  0
 14 24  1  0  0  0  0
M  END
>  <likely_enzyme_classes>
demethylase; oxidase

>  <activity>
-11.8

>  <molID>
mol000142

>  <name>
caffeine

>  <reference>
Lam et al. (2004); Baena-Nogueras et al. (2017)

>  <speciation_state_pH7.4>
neutral

>  <substance_type>
central nervous system stimulant drug

>  <smiles>
Cn1cnc2c1c(=O)n(C)c(=O)n2C

>  <inchi>
InChI=1S/C8H10N4O2/c1-10-4-9-6-5(10)7(13)12(3)8(14)11(6)2/h4H,1-3H3

>  <inchikey>
RYYVLZVUVIJVGH-UHFFFAOYSA-N

$$$$

emcorina  05091710353D 1   1.00000     0.00000 
CORINA evaluation license 3.49 0066  11.04.2013
 26 28  0  0  0  0  0  0  0  0999 V2000
    3.7823    0.1368   -0.8450 C   0  0  0  0  0  0  0  0  0  0  0  0
    2.7364   -0.9055   -1.2294 C   0  0  0  0  0  0  0  0  0  0  0  0
    1.5346   -0.8298   -0.3984 N   0  0  0  0  0  0  0  0  0  0  0  0
    0.2466   -1.5790   -0.3377 C   0  0  0  0  0  0  0  0  0  0  0  0
   -0.5117   -0.9032    0.8143 C   0  0  0  0  0  0  0  0  0  0  0  0
    0.4050    0.1380    1.2787 N   0  0  0  0  0  0  0  0  0  0  0  0
    1.5103    0.1249    0.5709 C   0  0  0  0  0  0  0  0  0  0  0  0
    3.0300    1.0453    0.5357 S   0  0  0  0  0  0  0  0  0  0  0  0
   -1.7957   -0.2924    0.3151 C   0  0  0  0  0  0  0  0  0  0  0  0
   -2.9941   -0.9565    0.4984 C   0  0  0  0  0  0  0  0  0  0  0  0
   -4.1719   -0.3963    0.0405 C   0  0  0  0  0  0  0  0  0  0  0  0
   -4.1514    0.8284   -0.6004 C   0  0  0  0  0  0  0  0  0  0  0  0
   -2.9531    1.4929   -0.7830 C   0  0  0  0  0  0  0  0  0  0  0  0
   -1.7758    0.9347   -0.3212 C   0  0  0  0  0  0  0  0  0  0  0  0
    4.7037   -0.3490   -0.5240 H   0  0  0  0  0  0  0  0  0  0  0  0
    3.9762    0.8080   -1.6817 H   0  0  0  0  0  0  0  0  0  0  0  0
    2.4544   -0.7542   -2.2713 H   0  0  0  0  0  0  0  0  0  0  0  0
    3.1740   -1.8985   -1.1264 H   0  0  0  0  0  0  0  0  0  0  0  0
   -0.3031   -1.4728   -1.2729 H   0  0  0  0  0  0  0  0  0  0  0  0
    0.4251   -2.6308   -0.1142 H   0  0  0  0  0  0  0  0  0  0  0  0
   -0.7125   -1.6190    1.6114 H   0  0  0  0  0  0  0  0  0  0  0  0
   -3.0102   -1.9133    0.9992 H   0  0  0  0  0  0  0  0  0  0  0  0
   -5.1082   -0.9155    0.1831 H   0  0  0  0  0  0  0  0  0  0  0  0
   -5.0715    1.2658   -0.9588 H   0  0  0  0  0  0  0  0  0  0  0  0
   -2.9370    2.4495   -1.2840 H   0  0  0  0  0  0  0  0  0  0  0  0
   -0.8396    1.4539   -0.4638 H   0  0  0  0  0  0  0  0  0  0  0  0
  1  2  1  0  0  0  0
  1  8  1  0  0  0  0
  1 15  1  0  0  0  0
  1 16  1  0  0  0  0
  2  3  1  0  0  0  0
  2 17  1  0  0  0  0
  2 18  1  0  0  0  0
  3  4  1  0  0  0  0
  3  7  1  0  0  0  0
  4  5  1  0  0  0  0
  4 19  1  0  0  0  0
  4 20  1  0  0  0  0
  5  6  1  0  0  0  0
  5  9  1  0  0  0  0
  5 21  1  0  0  0  0
  6  7  2  0  0  0  0
  7  8  1  0  0  0  0
  9 10  2  0  0  0  0
  9 14  1  0  0  0  0
 10 11  1  0  0  0  0
 10 22  1  0  0  0  0
 11 12  2  0  0  0  0
 11 23  1  0  0  0  0
 12 13  1  0  0  0  0
 12 24  1  0  0  0  0
 13 14  2  0  0  0  0
 13 25  1  0  0  0  0
 14 26  1  0  0  0  0
M  END
>  <likely_enzyme_classes>
amine dehydrogenase; oxidoreductase

>  <activity>
-10.8

>  <molID>
mol000143

>  <name>
levamisole

>  <reference>
Tappin et al. (2016)

>  <speciation_state_pH7.4>
neutral

>  <substance_type>
antihelminthic drug

>  <smiles>
c1ccc([C@H]2CN3CCSC3=N2)cc1

>  <inchi>
InChI=1S/C11H12N2S/c1-2-4-9(5-3-1)10-8-13-6-7-14-11(13)12-10/h1-5,10H,6-8H2/t10-/m1/s1

>  <inchikey>
HLFSDGLLUJUHTE-SNVBAGLBSA-N

$$$$

emcorina  05091710353D 1   1.00000     0.00000 
CORINA evaluation license 3.49 0066  11.04.2013
 26 26  0  0  0  0  0  0  0  0999 V2000
    5.2708   -0.1381   -0.0000 C   0  0  0  0  0  0  0  0  0  0  0  0
    3.9119    0.5648   -0.0004 C   0  0  0  0  0  0  0  0  0  0  0  0
    2.7962   -0.4821    0.0005 C   0  0  0  0  0  0  0  0  0  0  0  0
    1.4372    0.2209    0.0001 C   0  0  0  0  0  0  0  0  0  0  0  0
    0.3951   -0.7569    0.0009 O   0  0  0  0  0  0  0  0  0  0  0  0
   -0.9100   -0.2076    0.0007 N   0  0  0  0  0  0  0  0  0  0  0  0
   -1.2313    1.1229   -0.0007 C   0  0  0  0  0  0  0  0  0  0  0  0
   -2.5758    1.1992   -0.0004 C   0  0  0  0  0  0  0  0  0  0  0  0
   -3.0623   -0.0508    0.0011 N   0  3  0  0  0  0  0  0  0  0  0  0
   -4.4831   -0.4079    0.0019 C   0  0  0  0  0  0  0  0  0  0  0  0
   -2.0702   -0.8987   -0.0041 C   0  0  0  0  0  0  0  0  0  0  0  0
    5.3576   -0.7608    0.8904 H   0  0  0  0  0  0  0  0  0  0  0  0
    5.3574   -0.7621   -0.8895 H   0  0  0  0  0  0  0  0  0  0  0  0
    6.0657    0.6077   -0.0006 H   0  0  0  0  0  0  0  0  0  0  0  0
    3.8254    1.1888    0.8892 H   0  0  0  0  0  0  0  0  0  0  0  0
    3.8252    1.1875   -0.8908 H   0  0  0  0  0  0  0  0  0  0  0  0
    2.8827   -1.1060   -0.8890 H   0  0  0  0  0  0  0  0  0  0  0  0
    2.8829   -1.1047    0.8909 H   0  0  0  0  0  0  0  0  0  0  0  0
    1.3507    0.8449    0.8897 H   0  0  0  0  0  0  0  0  0  0  0  0
    1.3505    0.8436   -0.8903 H   0  0  0  0  0  0  0  0  0  0  0  0
   -0.5395    1.9523   -0.0013 H   0  0  0  0  0  0  0  0  0  0  0  0
   -3.1600    2.1075   -0.0013 H   0  0  0  0  0  0  0  0  0  0  0  0
   -4.8358   -0.4972   -1.0256 H   0  0  0  0  0  0  0  0  0  0  0  0
   -4.6183   -1.3592    0.5164 H   0  0  0  0  0  0  0  0  0  0  0  0
   -5.0522    0.3671    0.5154 H   0  0  0  0  0  0  0  0  0  0  0  0
   -2.1619   -1.9748   -0.0047 H   0  0  0  0  0  0  0  0  0  0  0  0
  1  2  1  0  0  0  0
  1 12  1  0  0  0  0
  1 13  1  0  0  0  0
  1 14  1  0  0  0  0
  2  3  1  0  0  0  0
  2 15  1  0  0  0  0
  2 16  1  0  0  0  0
  3  4  1  0  0  0  0
  3 17  1  0  0  0  0
  3 18  1  0  0  0  0
  4  5  1  0  0  0  0
  4 19  1  0  0  0  0
  4 20  1  0  0  0  0
  5  6  1  0  0  0  0
  6  7  1  0  0  0  0
  6 11  1  0  0  0  0
  7  8  2  0  0  0  0
  7 21  1  0  0  0  0
  8  9  1  0  0  0  0
  8 22  1  0  0  0  0
  9 10  1  0  0  0  0
  9 11  2  0  0  0  0
 10 23  1  0  0  0  0
 10 24  1  0  0  0  0
 10 25  1  0  0  0  0
 11 26  1  0  0  0  0
M  CHG  1   9   1
M  END
>  <likely_enzyme_classes>
demethylase

>  <activity>
-11.8

>  <molID>
mol000146

>  <name>
1-butoxymethylimidazolium L-lactate

>  <reference>
GARBACZEWSKA and Jarosaw HUPKO (2007)

>  <speciation_state_pH7.4>
cationic

>  <substance_type>
ionic liquid

>  <smiles>
CCCCOn1cc[n+](C)c1

>  <inchi>
InChI=1S/C8H15N2O/c1-3-4-7-11-10-6-5-9(2)8-10/h5-6,8H,3-4,7H2,1-2H3/q+1

>  <inchikey>
IYAXAKCGVBOMFW-UHFFFAOYSA-N

$$$$

emcorina  05091710353D 1   1.00000     0.00000 
CORINA evaluation license 3.49 0066  11.04.2013
 25 25  0  0  0  0  0  0  0  0999 V2000
    4.3195    0.5461   -0.7612 C   0  0  0  0  0  0  0  0  0  0  0  0
    3.3641    0.0682    0.3342 C   0  0  0  0  0  0  0  0  0  0  0  0
    1.9289    0.0906   -0.1955 C   0  0  0  0  0  0  0  0  0  0  0  0
    0.9735   -0.3872    0.8998 C   0  0  0  0  0  0  0  0  0  0  0  0
   -0.4007   -0.3658    0.3926 N   0  0  0  0  0  0  0  0  0  0  0  0
   -1.0487   -1.3915   -0.2412 C   0  0  0  0  0  0  0  0  0  0  0  0
   -2.2855   -0.9480   -0.5361 C   0  0  0  0  0  0  0  0  0  0  0  0
   -2.3900    0.3142   -0.0944 N   0  3  0  0  0  0  0  0  0  0  0  0
   -3.5795    1.1603   -0.2182 C   0  0  0  0  0  0  0  0  0  0  0  0
   -1.2668    0.6676    0.4682 C   0  0  0  0  0  0  0  0  0  0  0  0
    5.3420    0.5301   -0.3838 H   0  0  0  0  0  0  0  0  0  0  0  0
    4.2408   -0.1138   -1.6252 H   0  0  0  0  0  0  0  0  0  0  0  0
    4.0564    1.5622   -1.0549 H   0  0  0  0  0  0  0  0  0  0  0  0
    3.6272   -0.9479    0.6279 H   0  0  0  0  0  0  0  0  0  0  0  0
    3.4428    0.7281    1.1982 H   0  0  0  0  0  0  0  0  0  0  0  0
    1.6658    1.1068   -0.4893 H   0  0  0  0  0  0  0  0  0  0  0  0
    1.8502   -0.5692   -1.0596 H   0  0  0  0  0  0  0  0  0  0  0  0
    1.2366   -1.4034    1.1935 H   0  0  0  0  0  0  0  0  0  0  0  0
    1.0522    0.2726    1.7638 H   0  0  0  0  0  0  0  0  0  0  0  0
   -0.6453   -2.3685   -0.4628 H   0  0  0  0  0  0  0  0  0  0  0  0
   -3.0580   -1.5100   -1.0399 H   0  0  0  0  0  0  0  0  0  0  0  0
   -4.2147    1.0245    0.6572 H   0  0  0  0  0  0  0  0  0  0  0  0
   -3.2766    2.2050   -0.2888 H   0  0  0  0  0  0  0  0  0  0  0  0
   -4.1324    0.8809   -1.1151 H   0  0  0  0  0  0  0  0  0  0  0  0
   -1.0614    1.6297    0.9138 H   0  0  0  0  0  0  0  0  0  0  0  0
  1  2  1  0  0  0  0
  1 11  1  0  0  0  0
  1 12  1  0  0  0  0
  1 13  1  0  0  0  0
  2  3  1  0  0  0  0
  2 14  1  0  0  0  0
  2 15  1  0  0  0  0
  3  4  1  0  0  0  0
  3 16  1  0  0  0  0
  3 17  1  0  0  0  0
  4  5  1  0  0  0  0
  4 18  1  0  0  0  0
  4 19  1  0  0  0  0
  5  6  1  0  0  0  0
  5 10  1  0  0  0  0
  6  7  2  0  0  0  0
  6 20  1  0  0  0  0
  7  8  1  0  0  0  0
  7 21  1  0  0  0  0
  8  9  1  0  0  0  0
  8 10  2  0  0  0  0
  9 22  1  0  0  0  0
  9 23  1  0  0  0  0
  9 24  1  0  0  0  0
 10 25  1  0  0  0  0
M  CHG  1   8   1
M  END
>  <likely_enzyme_classes>
demethylase; amine dehydrogenase

>  <activity>
-11.9

>  <molID>
mol000147

>  <name>
1-butyl-3-methylimidazolium hexafluorophosphate

>  <reference>
GARBACZEWSKA and Jarosaw HUPKO (2007)

>  <speciation_state_pH7.4>
cationic

>  <substance_type>
ionic liquid

>  <smiles>
CCCCn1cc[n+](C)c1

>  <inchi>
InChI=1S/C8H15N2/c1-3-4-5-10-7-6-9(2)8-10/h6-8H,3-5H2,1-2H3/q+1

>  <inchikey>
IQQRAVYLUAZUGX-UHFFFAOYSA-N

$$$$

emcorina  05091710353D 1   1.00000     0.00000 
CORINA evaluation license 3.49 0066  11.04.2013
 21 21  0  0  0  0  0  0  0  0999 V2000
    3.9483   -0.0231   -0.7462 C   0  0  0  0  0  0  0  0  0  0  0  0
    2.9218    0.0057    0.3879 C   0  0  0  0  0  0  0  0  0  0  0  0
    1.5100   -0.0087   -0.2015 C   0  0  0  0  0  0  0  0  0  0  0  0
    0.4835    0.0201    0.9326 C   0  0  0  0  0  0  0  0  0  0  0  0
   -0.8684    0.0064    0.3682 N   0  0  0  0  0  0  0  0  0  0  0  0
   -1.6182   -1.1027    0.0829 C   0  0  0  0  0  0  0  0  0  0  0  0
   -2.7889   -0.6634   -0.4173 C   0  0  0  0  0  0  0  0  0  0  0  0
   -2.7548    0.6773   -0.4368 N   0  0  0  0  0  0  0  0  0  0  0  0
   -1.6097    1.0856    0.0377 C   0  0  0  0  0  0  0  0  0  0  0  0
    3.8113    0.8513   -1.3825 H   0  0  0  0  0  0  0  0  0  0  0  0
    4.9541   -0.0129   -0.3263 H   0  0  0  0  0  0  0  0  0  0  0  0
    3.8108   -0.9281   -1.3379 H   0  0  0  0  0  0  0  0  0  0  0  0
    3.0588   -0.8687    1.0242 H   0  0  0  0  0  0  0  0  0  0  0  0
    3.0593    0.9107    0.9796 H   0  0  0  0  0  0  0  0  0  0  0  0
    1.3730    0.8657   -0.8378 H   0  0  0  0  0  0  0  0  0  0  0  0
    1.3724   -0.9137   -0.7932 H   0  0  0  0  0  0  0  0  0  0  0  0
    0.6204   -0.8543    1.5689 H   0  0  0  0  0  0  0  0  0  0  0  0
    0.6210    0.9251    1.5243 H   0  0  0  0  0  0  0  0  0  0  0  0
   -1.3268   -2.1322    0.2300 H   0  0  0  0  0  0  0  0  0  0  0  0
   -3.6111   -1.2822   -0.7452 H   0  0  0  0  0  0  0  0  0  0  0  0
   -1.3029    2.1159    0.1418 H   0  0  0  0  0  0  0  0  0  0  0  0
  1  2  1  0  0  0  0
  1 10  1  0  0  0  0
  1 11  1  0  0  0  0
  1 12  1  0  0  0  0
  2  3  1  0  0  0  0
  2 13  1  0  0  0  0
  2 14  1  0  0  0  0
  3  4  1  0  0  0  0
  3 15  1  0  0  0  0
  3 16  1  0  0  0  0
  4  5  1  0  0  0  0
  4 17  1  0  0  0  0
  4 18  1  0  0  0  0
  5  6  1  0  0  0  0
  5  9  1  0  0  0  0
  6  7  2  0  0  0  0
  6 19  1  0  0  0  0
  7  8  1  0  0  0  0
  7 20  1  0  0  0  0
  8  9  2  0  0  0  0
  9 21  1  0  0  0  0
M  END
>  <likely_enzyme_classes>
amine dehydrogenase

>  <activity>
-12.1

>  <molID>
mol000148

>  <name>
1-butylimidazolium L-lactate

>  <reference>
GARBACZEWSKA and Jarosaw HUPKO (2007)

>  <speciation_state_pH7.4>
cationic

>  <substance_type>
ionic liquid

>  <smiles>
CCCCn1ccnc1

>  <inchi>
InChI=1S/C7H12N2/c1-2-3-5-9-6-4-8-7-9/h4,6-7H,2-3,5H2,1H3

>  <inchikey>
MCMFEZDRQOJKMN-UHFFFAOYSA-N

$$$$

emcorina  05091710353D 1   1.00000     0.00000 
CORINA evaluation license 3.49 0066  11.04.2013
 12 12  0  0  0  0  0  0  0  0999 V2000
    2.1208    0.0270    0.0008 C   0  0  0  0  0  0  0  0  0  0  0  0
    0.6559    0.0116    0.0009 N   0  0  0  0  0  0  0  0  0  0  0  0
   -0.1679    1.1048   -0.0011 C   0  0  0  0  0  0  0  0  0  0  0  0
   -1.4319    0.6402   -0.0001 C   0  0  0  0  0  0  0  0  0  0  0  0
   -1.3813   -0.7001    0.0023 N   0  0  0  0  0  0  0  0  0  0  0  0
   -0.1340   -1.0837   -0.0030 C   0  0  0  0  0  0  0  0  0  0  0  0
    2.4842    0.0327    1.0284 H   0  0  0  0  0  0  0  0  0  0  0  0
    2.4934   -0.8600   -0.5114 H   0  0  0  0  0  0  0  0  0  0  0  0
    2.4747    0.9198   -0.5147 H   0  0  0  0  0  0  0  0  0  0  0  0
    0.1372    2.1408   -0.0025 H   0  0  0  0  0  0  0  0  0  0  0  0
   -2.3290    1.2415   -0.0012 H   0  0  0  0  0  0  0  0  0  0  0  0
    0.2097   -2.1076   -0.0029 H   0  0  0  0  0  0  0  0  0  0  0  0
  1  2  1  0  0  0  0
  1  7  1  0  0  0  0
  1  8  1  0  0  0  0
  1  9  1  0  0  0  0
  2  3  1  0  0  0  0
  2  6  1  0  0  0  0
  3  4  2  0  0  0  0
  3 10  1  0  0  0  0
  4  5  1  0  0  0  0
  4 11  1  0  0  0  0
  5  6  2  0  0  0  0
  6 12  1  0  0  0  0
M  END
>  <likely_enzyme_classes>
demethylase

>  <activity>
-12.1

>  <molID>
mol000149

>  <name>
1-methylimidazolium L-lactate

>  <reference>
GARBACZEWSKA and Jarosaw HUPKO (2007)

>  <speciation_state_pH7.4>
cationic

>  <substance_type>
ionic liquid

>  <smiles>
Cn1ccnc1

>  <inchi>
InChI=1S/C4H6N2/c1-6-3-2-5-4-6/h2-4H,1H3

>  <inchikey>
MCTWTZJPVLRJOU-UHFFFAOYSA-N

$$$$

emcorina  05091710353D 1   1.00000     0.00000 
CORINA evaluation license 3.49 0066  11.04.2013
 30 32  0  0  0  0  0  0  0  0999 V2000
    1.2046    2.6447    0.8862 N   0  0  0  0  0  0  0  0  0  0  0  0
    0.0259    2.0466    0.6227 C   0  0  0  0  0  0  0  0  0  0  0  0
   -1.0137    2.6214    0.8669 O   0  0  0  0  0  0  0  0  0  0  0  0
    0.0026    0.8098    0.0878 N   0  0  0  0  0  0  0  0  0  0  0  0
   -1.1758    0.2046   -0.1787 C   0  0  0  0  0  0  0  0  0  0  0  0
   -1.9932    0.7445   -1.0607 C   0  0  0  0  0  0  0  0  0  0  0  0
   -3.2544    0.0707   -1.4105 C   0  0  0  0  0  0  0  0  0  0  0  0
   -3.5648   -1.0753   -0.8426 C   0  0  0  0  0  0  0  0  0  0  0  0
   -2.6625   -1.6678    0.1579 C   0  0  0  0  0  0  0  0  0  0  0  0
   -1.5395   -1.0573    0.4841 C   0  0  0  0  0  0  0  0  0  0  0  0
   -0.6800   -1.6370    1.5200 C   0  0  0  0  0  0  0  0  0  0  0  0
    0.6123   -1.6585    1.5156 C   0  0  0  0  0  0  0  0  0  0  0  0
    1.4829   -1.1075    0.4733 C   0  0  0  0  0  0  0  0  0  0  0  0
    2.5829   -1.7548    0.1396 C   0  0  0  0  0  0  0  0  0  0  0  0
    3.4966   -1.1930   -0.8682 C   0  0  0  0  0  0  0  0  0  0  0  0
    3.2198   -0.0377   -1.4347 C   0  0  0  0  0  0  0  0  0  0  0  0
    1.9844    0.6778   -1.0756 C   0  0  0  0  0  0  0  0  0  0  0  0
    1.1575    0.1662   -0.1918 C   0  0  0  0  0  0  0  0  0  0  0  0
    1.2214    3.5349    1.2711 H   0  0  0  0  0  0  0  0  0  0  0  0
    2.0361    2.1834    0.6946 H   0  0  0  0  0  0  0  0  0  0  0  0
   -1.7371    1.6840   -1.5277 H   0  0  0  0  0  0  0  0  0  0  0  0
   -3.9238    0.5161   -2.1315 H   0  0  0  0  0  0  0  0  0  0  0  0
   -4.4811   -1.5804   -1.1103 H   0  0  0  0  0  0  0  0  0  0  0  0
   -2.9210   -2.6057    0.6270 H   0  0  0  0  0  0  0  0  0  0  0  0
   -1.1734   -2.0890    2.3677 H   0  0  0  0  0  0  0  0  0  0  0  0
    1.0964   -2.1263    2.3601 H   0  0  0  0  0  0  0  0  0  0  0  0
    2.8139   -2.7002    0.6077 H   0  0  0  0  0  0  0  0  0  0  0  0
    4.3938   -1.7281   -1.1423 H   0  0  0  0  0  0  0  0  0  0  0  0
    3.8979    0.3847   -2.1614 H   0  0  0  0  0  0  0  0  0  0  0  0
    1.7560    1.6251   -1.5413 H   0  0  0  0  0  0  0  0  0  0  0  0
  1  2  1  0  0  0  0
  1 19  1  0  0  0  0
  1 20  1  0  0  0  0
  2  3  2  0  0  0  0
  2  4  1  0  0  0  0
  4  5  1  0  0  0  0
  4 18  1  0  0  0  0
  5  6  2  0  0  0  0
  5 10  1  0  0  0  0
  6  7  1  0  0  0  0
  6 21  1  0  0  0  0
  7  8  2  0  0  0  0
  7 22  1  0  0  0  0
  8  9  1  0  0  0  0
  8 23  1  0  0  0  0
  9 10  2  0  0  0  0
  9 24  1  0  0  0  0
 10 11  1  0  0  0  0
 11 12  2  0  0  0  0
 11 25  1  0  0  0  0
 12 13  1  0  0  0  0
 12 26  1  0  0  0  0
 13 14  2  0  0  0  0
 13 18  1  0  0  0  0
 14 15  1  0  0  0  0
 14 27  1  0  0  0  0
 15 16  2  0  0  0  0
 15 28  1  0  0  0  0
 16 17  1  0  0  0  0
 16 29  1  0  0  0  0
 17 18  2  0  0  0  0
 17 30  1  0  0  0  0
M  END
>  <likely_enzyme_classes>
amidohydrolase

>  <activity>
-11.8

>  <molID>
mol000150

>  <name>
carbamazepine

>  <reference>
Lam et al. (2004); Cormier et al. (2015); Baena-Nogueras et al. (2017)

>  <speciation_state_pH7.4>
neutral

>  <substance_type>
anticonvulsant drug

>  <smiles>
N=C(O)N1c2ccccc2C=Cc2ccccc21

>  <inchi>
InChI=1S/C15H12N2O/c16-15(18)17-13-7-3-1-5-11(13)9-10-12-6-2-4-8-14(12)17/h1-10H,(H2,16,18)

>  <inchikey>
FFGPTBGBLSHEPO-UHFFFAOYSA-N

$$$$

emcorina  05091710353D 1   1.00000     0.00000 
CORINA evaluation license 3.49 0066  11.04.2013
 20 20  0  0  0  0  0  0  0  0999 V2000
    3.9796    0.2260   -0.0328 C   0  0  0  0  0  0  0  0  0  0  0  0
    2.5172   -0.1355   -0.0725 C   0  0  0  0  0  0  0  0  0  0  0  0
    2.1737   -1.2313   -0.4630 O   0  0  0  0  0  0  0  0  0  0  0  0
    1.5909    0.7588    0.3260 N   0  0  0  0  0  0  0  0  0  0  0  0
    0.2281    0.4597    0.1986 C   0  0  0  0  0  0  0  0  0  0  0  0
   -0.2171   -0.8429    0.3801 C   0  0  0  0  0  0  0  0  0  0  0  0
   -1.5605   -1.1369    0.2549 C   0  0  0  0  0  0  0  0  0  0  0  0
   -2.4651   -0.1312   -0.0526 C   0  0  0  0  0  0  0  0  0  0  0  0
   -3.7878   -0.4213   -0.1757 O   0  0  0  0  0  0  0  0  0  0  0  0
   -2.0211    1.1704   -0.2340 C   0  0  0  0  0  0  0  0  0  0  0  0
   -0.6787    1.4668   -0.1035 C   0  0  0  0  0  0  0  0  0  0  0  0
    4.5720   -0.6165   -0.3898 H   0  0  0  0  0  0  0  0  0  0  0  0
    4.1574    1.0915   -0.6712 H   0  0  0  0  0  0  0  0  0  0  0  0
    4.2673    0.4645    0.9911 H   0  0  0  0  0  0  0  0  0  0  0  0
    1.8678    1.6094    0.7010 H   0  0  0  0  0  0  0  0  0  0  0  0
    0.4873   -1.6261    0.6188 H   0  0  0  0  0  0  0  0  0  0  0  0
   -1.9068   -2.1500    0.3961 H   0  0  0  0  0  0  0  0  0  0  0  0
   -4.2856   -0.3456    0.6498 H   0  0  0  0  0  0  0  0  0  0  0  0
   -2.7259    1.9528   -0.4738 H   0  0  0  0  0  0  0  0  0  0  0  0
   -0.3331    2.4802   -0.2448 H   0  0  0  0  0  0  0  0  0  0  0  0
  1  2  1  0  0  0  0
  1 12  1  0  0  0  0
  1 13  1  0  0  0  0
  1 14  1  0  0  0  0
  2  3  2  0  0  0  0
  2  4  1  0  0  0  0
  4  5  1  0  0  0  0
  4 15  1  0  0  0  0
  5  6  2  0  0  0  0
  5 11  1  0  0  0  0
  6  7  1  0  0  0  0
  6 16  1  0  0  0  0
  7  8  2  0  0  0  0
  7 17  1  0  0  0  0
  8  9  1  0  0  0  0
  8 10  1  0  0  0  0
  9 18  1  0  0  0  0
 10 11  2  0  0  0  0
 10 19  1  0  0  0  0
 11 20  1  0  0  0  0
M  END
>  <likely_enzyme_classes>
amidohydrolase

>  <activity>
-11.4

>  <molID>
mol000152

>  <name>
paracetamol

>  <reference>
Lam et al. (2004); Baena-Nogueras et al. (2017)

>  <speciation_state_pH7.4>
neutral

>  <substance_type>
analgesic drug

>  <smiles>
CC(O)=Nc1ccc(O)cc1

>  <inchi>
InChI=1S/C8H9NO2/c1-6(10)9-7-2-4-8(11)5-3-7/h2-5,11H,1H3,(H,9,10)

>  <inchikey>
RZVAJINKPMORJF-UHFFFAOYSA-N

$$$$

emcorina  05091710353D 1   1.00000     0.00000 
CORINA evaluation license 3.49 0066  11.04.2013
 26 26  0  0  0  0  0  0  0  0999 V2000
    4.1436    0.3922    1.5052 C   0  0  0  0  0  0  0  0  0  0  0  0
    3.7285    0.6019    0.0476 C   0  0  0  0  0  0  0  0  0  0  0  0
    4.9733    0.6034   -0.8420 C   0  0  0  0  0  0  0  0  0  0  0  0
    2.8418   -0.4723   -0.3625 O   0  0  0  0  0  0  0  0  0  0  0  0
    1.5224   -0.2817   -0.1732 C   0  0  0  0  0  0  0  0  0  0  0  0
    1.1228    0.7539    0.3211 O   0  0  0  0  0  0  0  0  0  0  0  0
    0.6449   -1.2397   -0.5321 N   0  0  0  0  0  0  0  0  0  0  0  0
   -0.7166   -1.0836   -0.2477 C   0  0  0  0  0  0  0  0  0  0  0  0
   -1.2976    0.1762   -0.2982 C   0  0  0  0  0  0  0  0  0  0  0  0
   -2.6427    0.3269   -0.0167 C   0  0  0  0  0  0  0  0  0  0  0  0
   -3.3709    1.9016   -0.0793 Cl  0  0  0  0  0  0  0  0  0  0  0  0
   -3.4091   -0.7766    0.3145 C   0  0  0  0  0  0  0  0  0  0  0  0
   -2.8321   -2.0322    0.3658 C   0  0  0  0  0  0  0  0  0  0  0  0
   -1.4902   -2.1896    0.0800 C   0  0  0  0  0  0  0  0  0  0  0  0
    4.8092    1.1986    1.8131 H   0  0  0  0  0  0  0  0  0  0  0  0
    3.2567    0.3912    2.1390 H   0  0  0  0  0  0  0  0  0  0  0  0
    4.6605   -0.5625    1.6021 H   0  0  0  0  0  0  0  0  0  0  0  0
    3.2116    1.5567   -0.0492 H   0  0  0  0  0  0  0  0  0  0  0  0
    5.4902   -0.3514   -0.7451 H   0  0  0  0  0  0  0  0  0  0  0  0
    4.6776    0.7528   -1.8804 H   0  0  0  0  0  0  0  0  0  0  0  0
    5.6389    1.4098   -0.5341 H   0  0  0  0  0  0  0  0  0  0  0  0
    0.9569   -2.0373   -0.9874 H   0  0  0  0  0  0  0  0  0  0  0  0
   -0.6994    1.0375   -0.5567 H   0  0  0  0  0  0  0  0  0  0  0  0
   -4.4598   -0.6569    0.5338 H   0  0  0  0  0  0  0  0  0  0  0  0
   -3.4327   -2.8916    0.6250 H   0  0  0  0  0  0  0  0  0  0  0  0
   -1.0406   -3.1708    0.1200 H   0  0  0  0  0  0  0  0  0  0  0  0
  1  2  1  0  0  0  0
  1 15  1  0  0  0  0
  1 16  1  0  0  0  0
  1 17  1  0  0  0  0
  2  3  1  0  0  0  0
  2  4  1  0  0  0  0
  2 18  1  0  0  0  0
  3 19  1  0  0  0  0
  3 20  1  0  0  0  0
  3 21  1  0  0  0  0
  4  5  1  0  0  0  0
  5  6  2  0  0  0  0
  5  7  1  0  0  0  0
  7  8  1  0  0  0  0
  7 22  1  0  0  0  0
  8  9  2  0  0  0  0
  8 14  1  0  0  0  0
  9 10  1  0  0  0  0
  9 23  1  0  0  0  0
 10 11  1  0  0  0  0
 10 12  2  0  0  0  0
 12 13  1  0  0  0  0
 12 24  1  0  0  0  0
 13 14  2  0  0  0  0
 13 25  1  0  0  0  0
 14 26  1  0  0  0  0
M  END
>  <likely_enzyme_classes>
amidohydrolase

>  <activity>
-12.1

>  <molID>
mol000153

>  <name>
chlorpropham (CICP)

>  <reference>
Paris et al. (1981)

>  <speciation_state_pH7.4>
neutral

>  <substance_type>
herbicide

>  <smiles>
CC(C)OC(O)=Nc1cccc(Cl)c1

>  <inchi>
InChI=1S/C10H12ClNO2/c1-7(2)14-10(13)12-9-5-3-4-8(11)6-9/h3-7H,1-2H3,(H,12,13)

>  <inchikey>
CWJSHJJYOPWUGX-UHFFFAOYSA-N

$$$$

emcorina  05091710353D 1   1.00000     0.00000 
CORINA evaluation license 3.49 0066  11.04.2013
 27 27  0  0  0  0  0  0  0  0999 V2000
    3.7805    1.1403   -1.2494 C   0  0  0  0  0  0  0  0  0  0  0  0
    3.5065    0.3009    0.0001 C   0  0  0  0  0  0  0  0  0  0  0  0
    3.7809    1.1409    1.2491 C   0  0  0  0  0  0  0  0  0  0  0  0
    2.1069   -0.1319    0.0005 N   0  0  0  0  0  0  0  0  0  0  0  0
    1.1183    0.7842    0.0004 C   0  0  0  0  0  0  0  0  0  0  0  0
    1.3880    1.9694    0.0001 O   0  0  0  0  0  0  0  0  0  0  0  0
   -0.2943    0.3474    0.0008 C   0  0  0  0  0  0  0  0  0  0  0  0
   -1.3201    1.2937    0.0007 C   0  0  0  0  0  0  0  0  0  0  0  0
   -2.6375    0.8796    0.0006 C   0  0  0  0  0  0  0  0  0  0  0  0
   -3.9149    2.0551    0.0005 Cl  0  0  0  0  0  0  0  0  0  0  0  0
   -2.9415   -0.4711   -0.0000 C   0  0  0  0  0  0  0  0  0  0  0  0
   -1.9282   -1.4144    0.0005 C   0  0  0  0  0  0  0  0  0  0  0  0
   -2.3192   -3.1058   -0.0002 Cl  0  0  0  0  0  0  0  0  0  0  0  0
   -0.6070   -1.0127   -0.0047 C   0  0  0  0  0  0  0  0  0  0  0  0
    4.3852   -0.8800    0.0003 C   0  0  0  0  0  0  0  0  0  0  0  0
    5.0861   -1.8219    0.0004 C   0  0  0  0  0  0  0  0  0  0  0  0
    4.8218    1.4623   -1.2496 H   0  0  0  0  0  0  0  0  0  0  0  0
    3.5850    0.5419   -2.1392 H   0  0  0  0  0  0  0  0  0  0  0  0
    3.1298    2.0148   -1.2495 H   0  0  0  0  0  0  0  0  0  0  0  0
    3.1302    2.0154    1.2490 H   0  0  0  0  0  0  0  0  0  0  0  0
    3.5857    0.5429    2.1393 H   0  0  0  0  0  0  0  0  0  0  0  0
    4.8223    1.4629    1.2489 H   0  0  0  0  0  0  0  0  0  0  0  0
    1.8917   -1.0777    0.0007 H   0  0  0  0  0  0  0  0  0  0  0  0
   -1.0842    2.3476    0.0012 H   0  0  0  0  0  0  0  0  0  0  0  0
   -3.9733   -0.7901   -0.0005 H   0  0  0  0  0  0  0  0  0  0  0  0
    0.1826   -1.7495   -0.0046 H   0  0  0  0  0  0  0  0  0  0  0  0
    5.7129   -2.6643    0.0005 H   0  0  0  0  0  0  0  0  0  0  0  0
  1  2  1  0  0  0  0
  1 17  1  0  0  0  0
  1 18  1  0  0  0  0
  1 19  1  0  0  0  0
  2  3  1  0  0  0  0
  2  4  1  0  0  0  0
  2 15  1  0  0  0  0
  3 20  1  0  0  0  0
  3 21  1  0  0  0  0
  3 22  1  0  0  0  0
  4  5  1  0  0  0  0
  4 23  1  0  0  0  0
  5  6  2  0  0  0  0
  5  7  1  0  0  0  0
  7  8  2  0  0  0  0
  7 14  1  0  0  0  0
  8  9  1  0  0  0  0
  8 24  1  0  0  0  0
  9 10  1  0  0  0  0
  9 11  2  0  0  0  0
 11 12  1  0  0  0  0
 11 25  1  0  0  0  0
 12 13  1  0  0  0  0
 12 14  2  0  0  0  0
 14 26  1  0  0  0  0
 15 16  3  0  0  0  0
 16 27  1  0  0  0  0
M  END
>  <likely_enzyme_classes>
amidohydrolase

>  <activity>
-12.9

>  <molID>
mol000155

>  <name>
pronamide

>  <reference>
Steen and Collete (1989); Book chapter: Biodegradation analysis in water systems (14.3.2), from Environmental Xenobiotics by Richardson M.

>  <speciation_state_pH7.4>
neutral

>  <substance_type>
herbicide

>  <smiles>
C#CC(C)(C)N=C(O)c1cc(Cl)cc(Cl)c1

>  <inchi>
InChI=1S/C12H11Cl2NO/c1-4-12(2,3)15-11(16)8-5-9(13)7-10(14)6-8/h1,5-7H,2-3H3,(H,15,16)

>  <inchikey>
PHNUZKMIPFFYSO-UHFFFAOYSA-N

$$$$

emcorina  05091710353D 1   1.00000     0.00000 
CORINA evaluation license 3.49 0066  11.04.2013
  7  7  0  0  0  0  0  0  0  0999 V2000
    0.7650   -0.4128    0.0000 C   0  0  0  0  0  0  0  0  0  0  0  0
   -0.7650   -0.4128    0.0000 C   0  0  0  0  0  0  0  0  0  0  0  0
   -0.0000    0.7942   -0.0000 O   0  0  0  0  0  0  0  0  0  0  0  0
    1.2729   -0.6922    0.9231 H   0  0  0  0  0  0  0  0  0  0  0  0
    1.2729   -0.6922   -0.9231 H   0  0  0  0  0  0  0  0  0  0  0  0
   -1.2729   -0.6922   -0.9231 H   0  0  0  0  0  0  0  0  0  0  0  0
   -1.2729   -0.6922    0.9231 H   0  0  0  0  0  0  0  0  0  0  0  0
  1  2  1  0  0  0  0
  1  3  1  0  0  0  0
  1  4  1  0  0  0  0
  1  5  1  0  0  0  0
  2  3  1  0  0  0  0
  2  6  1  0  0  0  0
  2  7  1  0  0  0  0
M  END
>  <likely_enzyme_classes>
epoxide hydrolase

>  <activity>
-10.8

>  <molID>
mol000156

>  <name>
ethylene oxide

>  <reference>
Capel and Larson (1995)

>  <speciation_state_pH7.4>
neutral

>  <substance_type>
chemical substance

>  <smiles>
C1CO1

>  <inchi>
InChI=1S/C2H4O/c1-2-3-1/h1-2H2

>  <inchikey>
IAYPIBMASNFSPL-UHFFFAOYSA-N

$$$$

emcorina  05091710353D 1   1.00000     0.00000 
CORINA evaluation license 3.49 0066  11.04.2013
 17 18  0  0  0  0  0  0  0  0999 V2000
    2.5242    0.3380    0.7803 C   0  0  0  0  0  0  0  0  0  0  0  0
    2.4907   -0.6409   -0.2602 O   0  0  0  0  0  0  0  0  0  0  0  0
    1.5973    0.4613   -0.4308 C   0  0  0  0  0  0  0  0  0  0  0  0
    0.1264    0.2124   -0.2175 C   0  0  0  0  0  0  0  0  0  0  0  0
   -0.7504    1.2780   -0.1366 C   0  0  0  0  0  0  0  0  0  0  0  0
   -2.0996    1.0497    0.0591 C   0  0  0  0  0  0  0  0  0  0  0  0
   -2.5722   -0.2443    0.1735 C   0  0  0  0  0  0  0  0  0  0  0  0
   -1.6956   -1.3100    0.0917 C   0  0  0  0  0  0  0  0  0  0  0  0
   -0.3469   -1.0819   -0.1083 C   0  0  0  0  0  0  0  0  0  0  0  0
    2.0756    0.0762    1.7386 H   0  0  0  0  0  0  0  0  0  0  0  0
    3.3890    0.9998    0.8274 H   0  0  0  0  0  0  0  0  0  0  0  0
    1.8462    1.2044   -1.1883 H   0  0  0  0  0  0  0  0  0  0  0  0
   -0.3812    2.2890   -0.2260 H   0  0  0  0  0  0  0  0  0  0  0  0
   -2.7845    1.8823    0.1230 H   0  0  0  0  0  0  0  0  0  0  0  0
   -3.6262   -0.4227    0.3271 H   0  0  0  0  0  0  0  0  0  0  0  0
   -2.0647   -2.3210    0.1814 H   0  0  0  0  0  0  0  0  0  0  0  0
    0.3380   -1.9145   -0.1722 H   0  0  0  0  0  0  0  0  0  0  0  0
  1  2  1  0  0  0  0
  1  3  1  0  0  0  0
  1 10  1  0  0  0  0
  1 11  1  0  0  0  0
  2  3  1  0  0  0  0
  3  4  1  0  0  0  0
  3 12  1  0  0  0  0
  4  5  2  0  0  0  0
  4  9  1  0  0  0  0
  5  6  1  0  0  0  0
  5 13  1  0  0  0  0
  6  7  2  0  0  0  0
  6 14  1  0  0  0  0
  7  8  1  0  0  0  0
  7 15  1  0  0  0  0
  8  9  2  0  0  0  0
  8 16  1  0  0  0  0
  9 17  1  0  0  0  0
M  END
>  <likely_enzyme_classes>
epoxide hydrolase; dioxygenase

>  <activity>
-9.8

>  <molID>
mol000157

>  <name>
styrene oxide

>  <reference>
Mackay handbook of physical-chemical properties

>  <speciation_state_pH7.4>
neutral

>  <substance_type>
chemical substance

>  <smiles>
c1ccc(C2CO2)cc1

>  <inchi>
InChI=1S/C8H8O/c1-2-4-7(5-3-1)8-6-9-8/h1-5,8H,6H2

>  <inchikey>
AWMVMTVKBNGEAK-UHFFFAOYSA-N

$$$$

emcorina  05091710353D 1   1.00000     0.00000 
CORINA evaluation license 3.49 0066  11.04.2013
  7  6  0  0  0  0  0  0  0  0999 V2000
    1.6516   -0.3933   -0.0004 C   0  0  0  0  0  0  0  0  0  0  0  0
    0.6855    0.5216    0.0002 C   0  0  0  0  0  0  0  0  0  0  0  0
   -0.6871    0.1135    0.0000 C   0  0  0  0  0  0  0  0  0  0  0  0
   -1.7760   -0.2103   -0.0001 N   0  0  0  0  0  0  0  0  0  0  0  0
    2.6868   -0.0855   -0.0003 H   0  0  0  0  0  0  0  0  0  0  0  0
    1.4005   -1.4437    0.0034 H   0  0  0  0  0  0  0  0  0  0  0  0
    0.9366    1.5720    0.0008 H   0  0  0  0  0  0  0  0  0  0  0  0
  1  2  2  0  0  0  0
  1  5  1  0  0  0  0
  1  6  1  0  0  0  0
  2  3  1  0  0  0  0
  2  7  1  0  0  0  0
  3  4  3  0  0  0  0
M  END
>  <likely_enzyme_classes>
nitril hydrolase

>  <activity>
-9.5

>  <molID>
mol000159

>  <name>
acrylonitrile

>  <reference>
Capel and Larson (1995)

>  <speciation_state_pH7.4>
neutral

>  <substance_type>
chemical substance

>  <smiles>
C=CC#N

>  <inchi>
InChI=1S/C3H3N/c1-2-3-4/h2H,1H2

>  <inchikey>
NLHHRLWOUZZQLW-UHFFFAOYSA-N

$$$$

emcorina  05091710353D 1   1.00000     0.00000 
CORINA evaluation license 3.49 0066  11.04.2013
 29 29  0  0  0  0  0  0  0  0999 V2000
   -3.0367    2.0858    1.2182 C   0  0  0  0  0  0  0  0  0  0  0  0
   -2.3969    1.5767    0.0462 O   0  0  0  0  0  0  0  0  0  0  0  0
   -2.2574    0.0029   -0.2632 P   0  0  0  0  0  0  0  0  0  0  0  0
   -1.7107   -0.8875    1.2800 S   0  0  0  0  0  0  0  0  0  0  0  0
   -3.6804   -0.5780   -0.7424 O   0  0  0  0  0  0  0  0  0  0  0  0
   -4.7658   -0.8171    0.1558 C   0  0  0  0  0  0  0  0  0  0  0  0
   -1.1671   -0.2207   -1.4265 O   0  0  0  0  0  0  0  0  0  0  0  0
    0.1191   -0.0660   -1.0159 C   0  0  0  0  0  0  0  0  0  0  0  0
    0.8295   -1.1546   -0.5318 C   0  0  0  0  0  0  0  0  0  0  0  0
    2.1372   -0.9948   -0.1154 C   0  0  0  0  0  0  0  0  0  0  0  0
    2.9097   -2.1770    0.4106 C   0  0  0  0  0  0  0  0  0  0  0  0
    2.7378    0.2487   -0.1812 C   0  0  0  0  0  0  0  0  0  0  0  0
    2.0316    1.3355   -0.6634 C   0  0  0  0  0  0  0  0  0  0  0  0
    0.7257    1.1800   -1.0854 C   0  0  0  0  0  0  0  0  0  0  0  0
    4.1387    0.4171    0.2656 N   0  3  0  0  0  0  0  0  0  0  0  0
    4.4758    1.4358    0.8419 O   0  5  0  0  0  0  0  0  0  0  0  0
    4.9544   -0.4630    0.0569 O   0  0  0  0  0  0  0  0  0  0  0  0
   -3.0068    3.1753    1.2043 H   0  0  0  0  0  0  0  0  0  0  0  0
   -4.0738    1.7511    1.2404 H   0  0  0  0  0  0  0  0  0  0  0  0
   -2.5176    1.7193    2.1038 H   0  0  0  0  0  0  0  0  0  0  0  0
   -4.4602   -1.5420    0.9102 H   0  0  0  0  0  0  0  0  0  0  0  0
   -5.0473    0.1168    0.6423 H   0  0  0  0  0  0  0  0  0  0  0  0
   -5.6179   -1.2084   -0.4000 H   0  0  0  0  0  0  0  0  0  0  0  0
    0.3608   -2.1262   -0.4802 H   0  0  0  0  0  0  0  0  0  0  0  0
    3.5042   -2.6097   -0.3941 H   0  0  0  0  0  0  0  0  0  0  0  0
    3.5693   -1.8513    1.2149 H   0  0  0  0  0  0  0  0  0  0  0  0
    2.2143   -2.9251    0.7913 H   0  0  0  0  0  0  0  0  0  0  0  0
    2.5030    2.3059   -0.7138 H   0  0  0  0  0  0  0  0  0  0  0  0
    0.1747    2.0290   -1.4622 H   0  0  0  0  0  0  0  0  0  0  0  0
  1  2  1  0  0  0  0
  1 18  1  0  0  0  0
  1 19  1  0  0  0  0
  1 20  1  0  0  0  0
  2  3  1  0  0  0  0
  3  4  2  0  0  0  0
  3  5  1  0  0  0  0
  3  7  1  0  0  0  0
  5  6  1  0  0  0  0
  6 21  1  0  0  0  0
  6 22  1  0  0  0  0
  6 23  1  0  0  0  0
  7  8  1  0  0  0  0
  8  9  2  0  0  0  0
  8 14  1  0  0  0  0
  9 10  1  0  0  0  0
  9 24  1  0  0  0  0
 10 11  1  0  0  0  0
 10 12  2  0  0  0  0
 11 25  1  0  0  0  0
 11 26  1  0  0  0  0
 11 27  1  0  0  0  0
 12 13  1  0  0  0  0
 12 15  1  0  0  0  0
 13 14  2  0  0  0  0
 13 28  1  0  0  0  0
 14 29  1  0  0  0  0
 15 16  1  0  0  0  0
 15 17  2  0  0  0  0
M  CHG  2  15   1  16  -1
M  END
>  <likely_enzyme_classes>
hydrolase (phosphatase); nitroreductase; oxidoreductase

>  <activity>
-12.3

>  <molID>
mol000160

>  <name>
fenitrothion

>  <reference>
Kaonga et al. (2016)

>  <speciation_state_pH7.4>
neutral

>  <substance_type>
insecticide

>  <smiles>
COP(=S)(OC)Oc1ccc([N+](=O)[O-])c(C)c1

>  <inchi>
InChI=1S/C9H12NO5PS/c1-7-6-8(4-5-9(7)10(11)12)15-16(17,13-2)14-3/h4-6H,1-3H3

>  <inchikey>
ZNOLGFHPUIJIMJ-UHFFFAOYSA-N

$$$$

emcorina  05091710353D 1   1.00000     0.00000 
CORINA evaluation license 3.49 0066  11.04.2013
 36 37  0  0  0  0  0  0  0  0999 V2000
    1.8979    3.2116    0.0162 C   0  0  0  0  0  0  0  0  0  0  0  0
    0.1111    2.9233   -0.0033 S   0  0  0  0  0  0  0  0  0  0  0  0
    0.0854    1.1615    0.0106 C   0  0  0  0  0  0  0  0  0  0  0  0
    1.2271    0.4798    0.0301 N   0  0  0  0  0  0  0  0  0  0  0  0
    1.2074   -0.8493    0.0410 C   0  0  0  0  0  0  0  0  0  0  0  0
    2.3922   -1.5569    0.0613 N   0  0  0  0  0  0  0  0  0  0  0  0
    3.6715   -0.8431    0.0707 C   0  0  0  0  0  0  0  0  0  0  0  0
    4.8807   -1.5682    0.6649 C   0  0  0  0  0  0  0  0  0  0  0  0
    4.7783   -1.3647   -0.8480 C   0  0  0  0  0  0  0  0  0  0  0  0
    0.0465   -1.4970    0.0330 N   0  0  0  0  0  0  0  0  0  0  0  0
   -1.0952   -0.8157    0.0135 C   0  0  0  0  0  0  0  0  0  0  0  0
   -2.3002   -1.4886    0.0051 N   0  0  0  0  0  0  0  0  0  0  0  0
   -3.5581   -0.7380   -0.0164 C   0  0  0  0  0  0  0  0  0  0  0  0
   -3.6117    0.1317   -1.2740 C   0  0  0  0  0  0  0  0  0  0  0  0
   -4.7352   -1.7154   -0.0217 C   0  0  0  0  0  0  0  0  0  0  0  0
   -3.6412    0.1536    1.2242 C   0  0  0  0  0  0  0  0  0  0  0  0
   -1.0761    0.5131    0.0072 N   0  0  0  0  0  0  0  0  0  0  0  0
    2.0929    4.2840    0.0099 H   0  0  0  0  0  0  0  0  0  0  0  0
    2.3275    2.7695    0.9151 H   0  0  0  0  0  0  0  0  0  0  0  0
    2.3493    2.7551   -0.8647 H   0  0  0  0  0  0  0  0  0  0  0  0
    2.3779   -2.5267    0.0693 H   0  0  0  0  0  0  0  0  0  0  0  0
    3.6075    0.2347    0.2202 H   0  0  0  0  0  0  0  0  0  0  0  0
    5.6123   -0.9673    1.2052 H   0  0  0  0  0  0  0  0  0  0  0  0
    4.7243   -2.5762    1.0489 H   0  0  0  0  0  0  0  0  0  0  0  0
    4.5545   -2.2390   -1.4594 H   0  0  0  0  0  0  0  0  0  0  0  0
    5.4425   -0.6301   -1.3031 H   0  0  0  0  0  0  0  0  0  0  0  0
   -2.3142   -2.4584    0.0134 H   0  0  0  0  0  0  0  0  0  0  0  0
   -3.5524   -0.5035   -2.1578 H   0  0  0  0  0  0  0  0  0  0  0  0
   -4.5476    0.6902   -1.2900 H   0  0  0  0  0  0  0  0  0  0  0  0
   -2.7731    0.8281   -1.2701 H   0  0  0  0  0  0  0  0  0  0  0  0
   -4.6971   -2.3350    0.8742 H   0  0  0  0  0  0  0  0  0  0  0  0
   -5.6711   -1.1569   -0.0377 H   0  0  0  0  0  0  0  0  0  0  0  0
   -4.6760   -2.3506   -0.9055 H   0  0  0  0  0  0  0  0  0  0  0  0
   -2.8027    0.8499    1.2281 H   0  0  0  0  0  0  0  0  0  0  0  0
   -4.5772    0.7121    1.2083 H   0  0  0  0  0  0  0  0  0  0  0  0
   -3.6031   -0.4660    2.1202 H   0  0  0  0  0  0  0  0  0  0  0  0
  1  2  1  0  0  0  0
  1 18  1  0  0  0  0
  1 19  1  0  0  0  0
  1 20  1  0  0  0  0
  2  3  1  0  0  0  0
  3  4  2  0  0  0  0
  3 17  1  0  0  0  0
  4  5  1  0  0  0  0
  5  6  1  0  0  0  0
  5 10  2  0  0  0  0
  6  7  1  0  0  0  0
  6 21  1  0  0  0  0
  7  8  1  0  0  0  0
  7  9  1  0  0  0  0
  7 22  1  0  0  0  0
  8  9  1  0  0  0  0
  8 23  1  0  0  0  0
  8 24  1  0  0  0  0
  9 25  1  0  0  0  0
  9 26  1  0  0  0  0
 10 11  1  0  0  0  0
 11 12  1  0  0  0  0
 11 17  2  0  0  0  0
 12 13  1  0  0  0  0
 12 27  1  0  0  0  0
 13 14  1  0  0  0  0
 13 15  1  0  0  0  0
 13 16  1  0  0  0  0
 14 28  1  0  0  0  0
 14 29  1  0  0  0  0
 14 30  1  0  0  0  0
 15 31  1  0  0  0  0
 15 32  1  0  0  0  0
 15 33  1  0  0  0  0
 16 34  1  0  0  0  0
 16 35  1  0  0  0  0
 16 36  1  0  0  0  0
M  END
>  <likely_enzyme_classes>
hydrolase?; amine dehydrogenase

>  <activity>
-12.4

>  <molID>
mol000161

>  <name>
irgarol 1051

>  <reference>
Kaonga et al. (2016)

>  <speciation_state_pH7.4>
neutral

>  <substance_type>
biocide

>  <smiles>
CSc1nc(=NC2CC2)nc(NC(C)(C)C)[nH]1

>  <inchi>
InChI=1S/C11H19N5S/c1-11(2,3)16-9-13-8(12-7-5-6-7)14-10(15-9)17-4/h7H,5-6H2,1-4H3,(H2,12,13,14,15,16)

>  <inchikey>
HDHLIWCXDDZUFH-UHFFFAOYSA-N

$$$$

emcorina  05091710353D 1   1.00000     0.00000 
CORINA evaluation license 3.49 0066  11.04.2013
 21 20  0  0  0  0  0  0  0  0999 V2000
    4.2535   -0.8641    0.9540 O   0  5  0  0  0  0  0  0  0  0  0  0
    3.7697   -0.7801   -0.1606 N   0  3  0  0  0  0  0  0  0  0  0  0
    4.2015   -1.4715   -1.0656 O   0  0  0  0  0  0  0  0  0  0  0  0
    2.7013    0.1170   -0.4029 O   0  0  0  0  0  0  0  0  0  0  0  0
    2.2929    0.8589    0.7482 C   0  0  0  0  0  0  0  0  0  0  0  0
    1.1394    1.7907    0.3715 C   0  0  0  0  0  0  0  0  0  0  0  0
    0.0002    1.0123   -0.0003 O   0  0  0  0  0  0  0  0  0  0  0  0
   -1.1392    1.7903   -0.3723 C   0  0  0  0  0  0  0  0  0  0  0  0
   -2.2926    0.8581   -0.7487 C   0  0  0  0  0  0  0  0  0  0  0  0
   -2.7008    0.1166    0.4026 O   0  0  0  0  0  0  0  0  0  0  0  0
   -3.7690   -0.7809    0.1607 N   0  3  0  0  0  0  0  0  0  0  0  0
   -4.2528   -0.8654   -0.9539 O   0  5  0  0  0  0  0  0  0  0  0  0
   -4.2039   -1.4684    1.0671 O   0  0  0  0  0  0  0  0  0  0  0  0
    1.9644    0.1702    1.5265 H   0  0  0  0  0  0  0  0  0  0  0  0
    3.1318    1.4496    1.1161 H   0  0  0  0  0  0  0  0  0  0  0  0
    0.8868    2.4197    1.2251 H   0  0  0  0  0  0  0  0  0  0  0  0
    1.4391    2.4194   -0.4670 H   0  0  0  0  0  0  0  0  0  0  0  0
   -1.4391    2.4193    0.4659 H   0  0  0  0  0  0  0  0  0  0  0  0
   -0.8868    2.4190   -1.2262 H   0  0  0  0  0  0  0  0  0  0  0  0
   -3.1316    1.4485   -1.1169 H   0  0  0  0  0  0  0  0  0  0  0  0
   -1.9639    0.1692   -1.5268 H   0  0  0  0  0  0  0  0  0  0  0  0
  1  2  1  0  0  0  0
  2  3  2  0  0  0  0
  2  4  1  0  0  0  0
  4  5  1  0  0  0  0
  5  6  1  0  0  0  0
  5 14  1  0  0  0  0
  5 15  1  0  0  0  0
  6  7  1  0  0  0  0
  6 16  1  0  0  0  0
  6 17  1  0  0  0  0
  7  8  1  0  0  0  0
  8  9  1  0  0  0  0
  8 18  1  0  0  0  0
  8 19  1  0  0  0  0
  9 10  1  0  0  0  0
  9 20  1  0  0  0  0
  9 21  1  0  0  0  0
 10 11  1  0  0  0  0
 11 12  1  0  0  0  0
 11 13  2  0  0  0  0
M  CHG  4   1  -1   2   1  11   1  12  -1
M  END
>  <likely_enzyme_classes>
monooxygenase; nitroreductase

>  <activity>
-12.2

>  <molID>
mol000163

>  <name>
diethylene glycol dinitrate

>  <reference>
Haag et al. (1991)

>  <speciation_state_pH7.4>
neutral

>  <substance_type>
chemical substance

>  <smiles>
O=[N+]([O-])OCCOCCO[N+](=O)[O-]

>  <inchi>
InChI=1S/C4H8N2O7/c7-5(8)12-3-1-11-2-4-13-6(9)10/h1-4H2

>  <inchikey>
LYAGTVMJGHTIDH-UHFFFAOYSA-N

$$$$

emcorina  05091710353D 1   1.00000     0.00000 
CORINA evaluation license 3.49 0066  11.04.2013
 17 17  0  0  0  0  0  0  0  0999 V2000
    2.4148   -1.7623   -0.0194 O   0  0  0  0  0  0  0  0  0  0  0  0
    1.1599   -1.2407   -0.0135 C   0  0  0  0  0  0  0  0  0  0  0  0
    0.9791    0.1345   -0.0068 C   0  0  0  0  0  0  0  0  0  0  0  0
   -0.2978    0.6623   -0.0013 C   0  0  0  0  0  0  0  0  0  0  0  0
   -1.3947   -0.1791   -0.0021 C   0  0  0  0  0  0  0  0  0  0  0  0
   -1.2172   -1.5505   -0.0088 C   0  0  0  0  0  0  0  0  0  0  0  0
    0.0572   -2.0830   -0.0200 C   0  0  0  0  0  0  0  0  0  0  0  0
   -2.7616    0.3889    0.0048 N   0  3  0  0  0  0  0  0  0  0  0  0
   -2.9191    1.5967    0.0111 O   0  5  0  0  0  0  0  0  0  0  0  0
   -3.7288   -0.3514    0.0041 O   0  0  0  0  0  0  0  0  0  0  0  0
    2.1532    1.0360   -0.0050 N   0  3  0  0  0  0  0  0  0  0  0  0
    1.9938    2.2435    0.0009 O   0  5  0  0  0  0  0  0  0  0  0  0
    3.2786    0.5702   -0.0095 O   0  0  0  0  0  0  0  0  0  0  0  0
    2.7805   -1.9172    0.8623 H   0  0  0  0  0  0  0  0  0  0  0  0
   -0.4391    1.7330    0.0039 H   0  0  0  0  0  0  0  0  0  0  0  0
   -2.0757   -2.2057   -0.0090 H   0  0  0  0  0  0  0  0  0  0  0  0
    0.1954   -3.1541   -0.0256 H   0  0  0  0  0  0  0  0  0  0  0  0
  1  2  1  0  0  0  0
  1 14  1  0  0  0  0
  2  3  2  0  0  0  0
  2  7  1  0  0  0  0
  3  4  1  0  0  0  0
  3 11  1  0  0  0  0
  4  5  2  0  0  0  0
  4 15  1  0  0  0  0
  5  6  1  0  0  0  0
  5  8  1  0  0  0  0
  6  7  2  0  0  0  0
  6 16  1  0  0  0  0
  7 17  1  0  0  0  0
  8  9  1  0  0  0  0
  8 10  2  0  0  0  0
 11 12  1  0  0  0  0
 11 13  2  0  0  0  0
M  CHG  4   8   1   9  -1  11   1  12  -1
M  END
>  <likely_enzyme_classes>
hydride transferase

>  <activity>
-11.4

>  <molID>
mol000165

>  <name>
2,4-dinitrophenol

>  <reference>
Mackay handbook of physical-chemical properties

>  <speciation_state_pH7.4>
anionic

>  <substance_type>
chemical substance

>  <smiles>
O=[N+]([O-])c1ccc(O)c([N+](=O)[O-])c1

>  <inchi>
InChI=1S/C6H4N2O5/c9-6-2-1-4(7(10)11)3-5(6)8(12)13/h1-3,9H

>  <inchikey>
UFBJCMHMOXMLKC-UHFFFAOYSA-N

$$$$

emcorina  05091710353D 1   1.00000     0.00000 
CORINA evaluation license 3.49 0066  11.04.2013
 15 15  0  0  0  0  0  0  0  0999 V2000
   -0.2023    2.0955    0.0256 O   0  0  0  0  0  0  0  0  0  0  0  0
    0.5108    0.9387    0.0138 C   0  0  0  0  0  0  0  0  0  0  0  0
    1.8974    0.9774    0.0151 C   0  0  0  0  0  0  0  0  0  0  0  0
    2.6202   -0.2001    0.0036 C   0  0  0  0  0  0  0  0  0  0  0  0
    1.9626   -1.4160   -0.0096 C   0  0  0  0  0  0  0  0  0  0  0  0
    0.5803   -1.4573   -0.0109 C   0  0  0  0  0  0  0  0  0  0  0  0
   -0.1468   -0.2831    0.0064 C   0  0  0  0  0  0  0  0  0  0  0  0
   -1.6262   -0.3279    0.0055 N   0  3  0  0  0  0  0  0  0  0  0  0
   -2.2029   -1.4006   -0.0104 O   0  5  0  0  0  0  0  0  0  0  0  0
   -2.2668    0.7079    0.0207 O   0  0  0  0  0  0  0  0  0  0  0  0
   -0.4082    2.4396   -0.8543 H   0  0  0  0  0  0  0  0  0  0  0  0
    2.4116    1.9271    0.0246 H   0  0  0  0  0  0  0  0  0  0  0  0
    3.6998   -0.1705    0.0045 H   0  0  0  0  0  0  0  0  0  0  0  0
    2.5294   -2.3353   -0.0193 H   0  0  0  0  0  0  0  0  0  0  0  0
    0.0689   -2.4085   -0.0212 H   0  0  0  0  0  0  0  0  0  0  0  0
  1  2  1  0  0  0  0
  1 11  1  0  0  0  0
  2  3  2  0  0  0  0
  2  7  1  0  0  0  0
  3  4  1  0  0  0  0
  3 12  1  0  0  0  0
  4  5  2  0  0  0  0
  4 13  1  0  0  0  0
  5  6  1  0  0  0  0
  5 14  1  0  0  0  0
  6  7  2  0  0  0  0
  6 15  1  0  0  0  0
  7  8  1  0  0  0  0
  8  9  1  0  0  0  0
  8 10  2  0  0  0  0
M  CHG  2   8   1   9  -1
M  END
>  <likely_enzyme_classes>
nitroreductase

>  <activity>
-11.1

>  <molID>
mol000166

>  <name>
2-nitrophenol

>  <reference>
Mackay handbook of physical-chemical properties

>  <speciation_state_pH7.4>
anionic

>  <substance_type>
chemical substance

>  <smiles>
O=[N+]([O-])c1ccccc1O

>  <inchi>
InChI=1S/C6H5NO3/c8-6-4-2-1-3-5(6)7(9)10/h1-4,8H

>  <inchikey>
IQUPABOKLQSFBK-UHFFFAOYSA-N

$$$$

emcorina  05091710353D 1   1.00000     0.00000 
CORINA evaluation license 3.49 0066  11.04.2013
 20 20  0  0  0  0  0  0  0  0999 V2000
    2.5276   -0.1316   -0.0078 O   0  0  0  0  0  0  0  0  0  0  0  0
    1.1745   -0.0588   -0.0051 C   0  0  0  0  0  0  0  0  0  0  0  0
    0.5473    1.1858   -0.0048 C   0  0  0  0  0  0  0  0  0  0  0  0
   -0.8138    1.2674   -0.0020 C   0  0  0  0  0  0  0  0  0  0  0  0
   -1.5859    0.0897    0.0006 C   0  0  0  0  0  0  0  0  0  0  0  0
   -0.9446   -1.1640    0.0003 C   0  0  0  0  0  0  0  0  0  0  0  0
    0.4173   -1.2289   -0.0083 C   0  0  0  0  0  0  0  0  0  0  0  0
    1.0935   -2.5456   -0.0086 N   0  3  0  0  0  0  0  0  0  0  0  0
    0.4335   -3.5692   -0.0013 O   0  5  0  0  0  0  0  0  0  0  0  0
    2.3100   -2.6055   -0.0162 O   0  0  0  0  0  0  0  0  0  0  0  0
   -2.9245    0.1618    0.0038 N   0  3  0  0  0  0  0  0  0  0  0  0
   -3.5893   -0.8588    0.0060 O   0  0  0  0  0  0  0  0  0  0  0  0
   -3.4759    1.2478    0.0044 O   0  0  0  0  0  0  0  0  0  0  0  0
    1.3609    2.4223   -0.0070 N   0  3  0  0  0  0  0  0  0  0  0  0
    0.8144    3.5109   -0.0068 O   0  5  0  0  0  0  0  0  0  0  0  0
    2.5768    2.3513   -0.0091 O   0  0  0  0  0  0  0  0  0  0  0  0
    2.9222   -0.1520    0.8748 H   0  0  0  0  0  0  0  0  0  0  0  0
   -1.2983    2.2326   -0.0014 H   0  0  0  0  0  0  0  0  0  0  0  0
   -1.5300   -2.0716    0.0026 H   0  0  0  0  0  0  0  0  0  0  0  0
   -4.5508   -0.7564    0.0082 H   0  0  0  0  0  0  0  0  0  0  0  0
  1  2  1  0  0  0  0
  1 17  1  0  0  0  0
  2  3  2  0  0  0  0
  2  7  1  0  0  0  0
  3  4  1  0  0  0  0
  3 14  1  0  0  0  0
  4  5  2  0  0  0  0
  4 18  1  0  0  0  0
  5  6  1  0  0  0  0
  5 11  1  0  0  0  0
  6  7  2  0  0  0  0
  6 19  1  0  0  0  0
  7  8  1  0  0  0  0
  8  9  1  0  0  0  0
  8 10  2  0  0  0  0
 11 12  1  0  0  0  0
 11 13  2  0  0  0  0
 12 20  1  0  0  0  0
 14 15  1  0  0  0  0
 14 16  2  0  0  0  0
M  CHG  5   8   1   9  -1  11   1  14   1  15  -1
M  END
>  <likely_enzyme_classes>
hydride transferase

>  <activity>
-11.4

>  <molID>
mol000167

>  <name>
2,4,6-trinitrophenol

>  <reference>
Mackay handbook of physical-chemical properties

>  <speciation_state_pH7.4>
anionic

>  <substance_type>
chemical substance

>  <smiles>
O=[N+]([O-])c1cc([N+](=O)O)cc([N+](=O)[O-])c1O

>  <inchi>
InChI=1S/C6H3N3O7/c10-6-4(8(13)14)1-3(7(11)12)2-5(6)9(15)16/h1-2H,(H-,10,11,12)/p+1

>  <inchikey>
VZUACKUDFFZPEZ-UHFFFAOYSA-O

$$$$

emcorina  05091710353D 1   1.00000     0.00000 
CORINA evaluation license 3.49 0066  11.04.2013
 29 29  0  0  0  0  0  0  0  0999 V2000
   -3.8050   -2.1458    0.2871 Cl  0  0  0  0  0  0  0  0  0  0  0  0
   -2.6556   -0.9973   -0.4944 C   0  0  0  0  0  0  0  0  0  0  0  0
   -1.3319   -0.9992    0.2728 C   0  0  0  0  0  0  0  0  0  0  0  0
   -0.3955   -0.0635   -0.3639 N   0  0  0  0  0  0  0  0  0  0  0  0
   -0.4212    1.2440    0.3053 C   0  0  0  0  0  0  0  0  0  0  0  0
   -1.3180    2.2020   -0.4813 C   0  0  0  0  0  0  0  0  0  0  0  0
   -1.2275    3.8473    0.2504 Cl  0  0  0  0  0  0  0  0  0  0  0  0
    1.1638   -0.6962   -0.3919 P   0  0  0  0  0  0  0  0  0  0  0  0
    1.1990   -1.9145   -1.2315 O   0  0  0  0  0  0  0  0  0  0  0  0
    2.2428    0.4552   -1.0003 N   0  0  0  0  0  0  0  0  0  0  0  0
    3.6238    0.0445   -0.6963 C   0  0  0  0  0  0  0  0  0  0  0  0
    3.8194   -0.0438    0.8158 C   0  0  0  0  0  0  0  0  0  0  0  0
    3.0466   -1.2337    1.3878 C   0  0  0  0  0  0  0  0  0  0  0  0
    1.6449   -1.0494    1.1164 O   0  0  0  0  0  0  0  0  0  0  0  0
   -2.4787   -1.3051   -1.5250 H   0  0  0  0  0  0  0  0  0  0  0  0
   -3.0807    0.0064   -0.4829 H   0  0  0  0  0  0  0  0  0  0  0  0
   -1.5088   -0.6914    1.3034 H   0  0  0  0  0  0  0  0  0  0  0  0
   -0.9068   -2.0029    0.2613 H   0  0  0  0  0  0  0  0  0  0  0  0
   -0.8124    1.1273    1.3159 H   0  0  0  0  0  0  0  0  0  0  0  0
    0.5900    1.6483    0.3516 H   0  0  0  0  0  0  0  0  0  0  0  0
   -0.9820    2.2461   -1.5173 H   0  0  0  0  0  0  0  0  0  0  0  0
   -2.3476    1.8457   -0.4481 H   0  0  0  0  0  0  0  0  0  0  0  0
    2.1137    0.5829   -1.9929 H   0  0  0  0  0  0  0  0  0  0  0  0
    3.8186   -0.9300   -1.1441 H   0  0  0  0  0  0  0  0  0  0  0  0
    4.3183    0.7763   -1.1090 H   0  0  0  0  0  0  0  0  0  0  0  0
    4.8802   -0.1651    1.0348 H   0  0  0  0  0  0  0  0  0  0  0  0
    3.4598    0.8749    1.2793 H   0  0  0  0  0  0  0  0  0  0  0  0
    3.3910   -2.1541    0.9162 H   0  0  0  0  0  0  0  0  0  0  0  0
    3.2063   -1.2899    2.4646 H   0  0  0  0  0  0  0  0  0  0  0  0
  1  2  1  0  0  0  0
  2  3  1  0  0  0  0
  2 15  1  0  0  0  0
  2 16  1  0  0  0  0
  3  4  1  0  0  0  0
  3 17  1  0  0  0  0
  3 18  1  0  0  0  0
  4  5  1  0  0  0  0
  4  8  1  0  0  0  0
  5  6  1  0  0  0  0
  5 19  1  0  0  0  0
  5 20  1  0  0  0  0
  6  7  1  0  0  0  0
  6 21  1  0  0  0  0
  6 22  1  0  0  0  0
  8  9  2  0  0  0  0
  8 10  1  0  0  0  0
  8 14  1  0  0  0  0
 10 11  1  0  0  0  0
 10 23  1  0  0  0  0
 11 12  1  0  0  0  0
 11 24  1  0  0  0  0
 11 25  1  0  0  0  0
 12 13  1  0  0  0  0
 12 26  1  0  0  0  0
 12 27  1  0  0  0  0
 13 14  1  0  0  0  0
 13 28  1  0  0  0  0
 13 29  1  0  0  0  0
M  END
>  <likely_enzyme_classes>
phosphoamide hydrolase; dehalogenase

>  <activity>
-11

>  <molID>
mol000168

>  <name>
cyclophosphamide

>  <reference>
Howard: Handbook of Environmental Degradation Rates; Kiffmeyer et al. (1998)

>  <speciation_state_pH7.4>
neutral

>  <substance_type>
antineoplastic drug

>  <smiles>
O=P1(N(CCCl)CCCl)NCCCO1

>  <inchi>
InChI=1S/C7H15Cl2N2O2P/c8-2-5-11(6-3-9)14(12)10-4-1-7-13-14/h1-7H2,(H,10,12)

>  <inchikey>
CMSMOCZEIVJLDB-UHFFFAOYSA-N

$$$$

emcorina  05091710353D 1   1.00000     0.00000 
CORINA evaluation license 3.49 0066  11.04.2013
 24 24  0  0  0  0  0  0  0  0999 V2000
    3.2939   -0.4005    0.3689 O   0  0  0  0  0  0  0  0  0  0  0  0
    2.1796    0.3921    0.7839 C   0  0  0  0  0  0  0  0  0  0  0  0
    0.9599    0.0451   -0.0723 C   0  0  0  0  0  0  0  0  0  0  0  0
    1.2499    0.3132   -1.4456 O   0  0  0  0  0  0  0  0  0  0  0  0
    0.6444   -1.3396    0.0867 O   0  0  0  0  0  0  0  0  0  0  0  0
   -0.4697   -1.7774   -0.6938 C   0  0  0  0  0  0  0  0  0  0  0  0
   -1.7213   -1.0022   -0.2738 C   0  0  0  0  0  0  0  0  0  0  0  0
   -2.0179   -1.2802    1.0961 O   0  0  0  0  0  0  0  0  0  0  0  0
   -1.4656    0.4980   -0.4480 C   0  0  0  0  0  0  0  0  0  0  0  0
   -2.6020    1.2330    0.0107 O   0  0  0  0  0  0  0  0  0  0  0  0
   -0.2341    0.8937    0.3725 C   0  0  0  0  0  0  0  0  0  0  0  0
    0.0569    2.2766    0.1602 O   0  0  0  0  0  0  0  0  0  0  0  0
    4.1039   -0.2330    0.8697 H   0  0  0  0  0  0  0  0  0  0  0  0
    1.9582    0.1875    1.8314 H   0  0  0  0  0  0  0  0  0  0  0  0
    2.4199    1.4483    0.6628 H   0  0  0  0  0  0  0  0  0  0  0  0
    1.9969   -0.1913   -1.7956 H   0  0  0  0  0  0  0  0  0  0  0  0
   -0.2675   -1.5968   -1.7495 H   0  0  0  0  0  0  0  0  0  0  0  0
   -0.6308   -2.8432   -0.5316 H   0  0  0  0  0  0  0  0  0  0  0  0
   -2.5630   -1.3041   -0.8972 H   0  0  0  0  0  0  0  0  0  0  0  0
   -2.1863   -2.2145    1.2804 H   0  0  0  0  0  0  0  0  0  0  0  0
   -1.2898    0.7180   -1.5010 H   0  0  0  0  0  0  0  0  0  0  0  0
   -3.4204    1.0270   -0.4614 H   0  0  0  0  0  0  0  0  0  0  0  0
   -0.4306    0.7211    1.4306 H   0  0  0  0  0  0  0  0  0  0  0  0
   -0.6598    2.8731    0.4163 H   0  0  0  0  0  0  0  0  0  0  0  0
  1  2  1  0  0  0  0
  1 13  1  0  0  0  0
  2  3  1  0  0  0  0
  2 14  1  0  0  0  0
  2 15  1  0  0  0  0
  3  4  1  0  0  0  0
  3  5  1  0  0  0  0
  3 11  1  0  0  0  0
  4 16  1  0  0  0  0
  5  6  1  0  0  0  0
  6  7  1  0  0  0  0
  6 17  1  0  0  0  0
  6 18  1  0  0  0  0
  7  8  1  0  0  0  0
  7  9  1  0  0  0  0
  7 19  1  0  0  0  0
  8 20  1  0  0  0  0
  9 10  1  0  0  0  0
  9 11  1  0  0  0  0
  9 21  1  0  0  0  0
 10 22  1  0  0  0  0
 11 12  1  0  0  0  0
 11 23  1  0  0  0  0
 12 24  1  0  0  0  0
M  END
>  <likely_enzyme_classes>
isomerase

>  <activity>
-9.1

>  <molID>
mol000171

>  <name>
fructose

>  <reference>
Vervier et al. (2002)

>  <speciation_state_pH7.4>
neutral

>  <substance_type>
chemical substance

>  <smiles>
OCC1(O)OC[C@@H](O)[C@@H](O)[C@@H]1O

>  <inchi>
InChI=1S/C6H12O6/c7-2-6(11)5(10)4(9)3(8)1-12-6/h3-5,7-11H,1-2H2/t3-,4-,5+,6?/m1/s1

>  <inchikey>
LKDRXBCSQODPBY-VRPWFDPXSA-N

$$$$

emcorina  05091710353D 1   1.00000     0.00000 
CORINA evaluation license 3.49 0066  11.04.2013
 45 46  0  0  0  0  0  0  0  0999 V2000
   -1.8249    3.3034   -0.9309 O   0  0  0  0  0  0  0  0  0  0  0  0
   -2.8053    2.5534   -0.2109 C   0  0  0  0  0  0  0  0  0  0  0  0
   -2.5935    1.0598   -0.4661 C   0  0  0  0  0  0  0  0  0  0  0  0
   -1.3350    0.6571    0.0780 O   0  0  0  0  0  0  0  0  0  0  0  0
   -1.0244   -0.7224   -0.1288 C   0  0  0  0  0  0  0  0  0  0  0  0
    0.2597   -1.0105    0.4280 O   0  0  0  0  0  0  0  0  0  0  0  0
    1.3389   -0.3325   -0.2183 C   0  0  0  0  0  0  0  0  0  0  0  0
    1.5774    1.0177    0.4644 C   0  0  0  0  0  0  0  0  0  0  0  0
    0.4211    1.8428    0.3091 O   0  0  0  0  0  0  0  0  0  0  0  0
    2.7849    1.7000   -0.1859 C   0  0  0  0  0  0  0  0  0  0  0  0
    3.0614    2.9278    0.4910 O   0  0  0  0  0  0  0  0  0  0  0  0
    4.0002    0.7747   -0.0839 C   0  0  0  0  0  0  0  0  0  0  0  0
    4.3163    0.5530    1.2919 O   0  0  0  0  0  0  0  0  0  0  0  0
    3.7005   -0.4739   -0.7112 O   0  0  0  0  0  0  0  0  0  0  0  0
    2.6101   -1.1794   -0.1151 C   0  0  0  0  0  0  0  0  0  0  0  0
    2.3999   -2.5064   -0.8471 C   0  0  0  0  0  0  0  0  0  0  0  0
    3.5421   -3.3431   -0.6538 O   0  0  0  0  0  0  0  0  0  0  0  0
   -2.0839   -1.5906    0.5549 C   0  0  0  0  0  0  0  0  0  0  0  0
   -1.8079   -2.9695    0.3008 O   0  0  0  0  0  0  0  0  0  0  0  0
   -3.4643   -1.2333   -0.0046 C   0  0  0  0  0  0  0  0  0  0  0  0
   -4.4672   -1.9867    0.6800 O   0  0  0  0  0  0  0  0  0  0  0  0
   -3.7160    0.2632    0.2041 C   0  0  0  0  0  0  0  0  0  0  0  0
   -4.9703    0.6223   -0.3789 O   0  0  0  0  0  0  0  0  0  0  0  0
   -1.8990    4.2606   -0.8154 H   0  0  0  0  0  0  0  0  0  0  0  0
   -2.7077    2.7573    0.8554 H   0  0  0  0  0  0  0  0  0  0  0  0
   -3.8016    2.8416   -0.5462 H   0  0  0  0  0  0  0  0  0  0  0  0
   -2.6032    0.8694   -1.5393 H   0  0  0  0  0  0  0  0  0  0  0  0
   -1.0134   -0.9362   -1.1976 H   0  0  0  0  0  0  0  0  0  0  0  0
    1.0916   -0.1715   -1.2676 H   0  0  0  0  0  0  0  0  0  0  0  0
    1.7733    0.8604    1.5251 H   0  0  0  0  0  0  0  0  0  0  0  0
    0.5026    2.7152    0.7183 H   0  0  0  0  0  0  0  0  0  0  0  0
    2.5674    1.9031   -1.2345 H   0  0  0  0  0  0  0  0  0  0  0  0
    3.8157    3.4141    0.1310 H   0  0  0  0  0  0  0  0  0  0  0  0
    4.8520    1.2370   -0.5827 H   0  0  0  0  0  0  0  0  0  0  0  0
    5.0781   -0.0259    1.4322 H   0  0  0  0  0  0  0  0  0  0  0  0
    2.8331   -1.3742    0.9339 H   0  0  0  0  0  0  0  0  0  0  0  0
    1.5143   -3.0035   -0.4511 H   0  0  0  0  0  0  0  0  0  0  0  0
    2.2646   -2.3166   -1.9118 H   0  0  0  0  0  0  0  0  0  0  0  0
    3.4782   -4.2032   -1.0911 H   0  0  0  0  0  0  0  0  0  0  0  0
   -2.0668   -1.4076    1.6293 H   0  0  0  0  0  0  0  0  0  0  0  0
   -0.9457   -3.2642    0.6247 H   0  0  0  0  0  0  0  0  0  0  0  0
   -3.4974   -1.4650   -1.0692 H   0  0  0  0  0  0  0  0  0  0  0  0
   -4.3653   -2.9447    0.5961 H   0  0  0  0  0  0  0  0  0  0  0  0
   -3.7337    0.4842    1.2713 H   0  0  0  0  0  0  0  0  0  0  0  0
   -5.7273    0.1513   -0.0046 H   0  0  0  0  0  0  0  0  0  0  0  0
  1  2  1  0  0  0  0
  1 24  1  0  0  0  0
  2  3  1  0  0  0  0
  2 25  1  0  0  0  0
  2 26  1  0  0  0  0
  3  4  1  0  0  0  0
  3 22  1  0  0  0  0
  3 27  1  0  0  0  0
  4  5  1  0  0  0  0
  5  6  1  0  0  0  0
  5 18  1  0  0  0  0
  5 28  1  0  0  0  0
  6  7  1  0  0  0  0
  7  8  1  0  0  0  0
  7 15  1  0  0  0  0
  7 29  1  0  0  0  0
  8  9  1  0  0  0  0
  8 10  1  0  0  0  0
  8 30  1  0  0  0  0
  9 31  1  0  0  0  0
 10 11  1  0  0  0  0
 10 12  1  0  0  0  0
 10 32  1  0  0  0  0
 11 33  1  0  0  0  0
 12 13  1  0  0  0  0
 12 14  1  0  0  0  0
 12 34  1  0  0  0  0
 13 35  1  0  0  0  0
 14 15  1  0  0  0  0
 15 16  1  0  0  0  0
 15 36  1  0  0  0  0
 16 17  1  0  0  0  0
 16 37  1  0  0  0  0
 16 38  1  0  0  0  0
 17 39  1  0  0  0  0
 18 19  1  0  0  0  0
 18 20  1  0  0  0  0
 18 40  1  0  0  0  0
 19 41  1  0  0  0  0
 20 21  1  0  0  0  0
 20 22  1  0  0  0  0
 20 42  1  0  0  0  0
 21 43  1  0  0  0  0
 22 23  1  0  0  0  0
 22 44  1  0  0  0  0
 23 45  1  0  0  0  0
M  END
>  <likely_enzyme_classes>
isomerase

>  <activity>
-9.1

>  <molID>
mol000172

>  <name>
cellobiose

>  <reference>
Vervier et al. (2002)

>  <speciation_state_pH7.4>
neutral

>  <substance_type>
chemical substance

>  <smiles>
OC[C@H]1O[C@@H](O[C@@H]2[C@@H](CO)OC(O)[C@H](O)[C@H]2O)[C@H](O)[C@@H](O)[C@@H]1O

>  <inchi>
InChI=1S/C12H22O11/c13-1-3-5(15)6(16)9(19)12(22-3)23-10-4(2-14)21-11(20)8(18)7(10)17/h3-20H,1-2H2/t3-,4-,5-,6+,7-,8-,9-,10-,11?,12+/m1/s1

>  <inchikey>
GUBGYTABKSRVRQ-CUHNMECISA-N

$$$$

emcorina  05091710353D 1   1.00000     0.00000 
CORINA evaluation license 3.49 0066  11.04.2013
 43 45  0  0  0  0  0  0  0  0999 V2000
    6.4020   -0.1039    1.4496 C   0  0  0  0  0  0  0  0  0  0  0  0
    5.6332   -0.0603    0.1275 C   0  0  0  0  0  0  0  0  0  0  0  0
    4.1299   -0.0533    0.4116 C   0  0  0  0  0  0  0  0  0  0  0  0
    3.3611   -0.0098   -0.9105 C   0  0  0  0  0  0  0  0  0  0  0  0
    1.8804   -0.0029   -0.6306 C   0  0  0  0  0  0  0  0  0  0  0  0
    1.0873    1.1009   -0.5465 C   0  0  0  0  0  0  0  0  0  0  0  0
   -0.1919    0.6865   -0.2801 N   0  0  0  0  0  0  0  0  0  0  0  0
   -0.1856   -0.7122   -0.1980 N   0  0  0  0  0  0  0  0  0  0  0  0
    1.0756   -1.1346   -0.4169 C   0  0  0  0  0  0  0  0  0  0  0  0
    1.4529   -2.2936   -0.4208 O   0  0  0  0  0  0  0  0  0  0  0  0
   -1.2930   -1.5264    0.0598 C   0  0  0  0  0  0  0  0  0  0  0  0
   -2.1337   -1.2402    1.1277 C   0  0  0  0  0  0  0  0  0  0  0  0
   -3.2265   -2.0463    1.3796 C   0  0  0  0  0  0  0  0  0  0  0  0
   -3.4840   -3.1373    0.5699 C   0  0  0  0  0  0  0  0  0  0  0  0
   -2.6490   -3.4250   -0.4942 C   0  0  0  0  0  0  0  0  0  0  0  0
   -1.5578   -2.6196   -0.7549 C   0  0  0  0  0  0  0  0  0  0  0  0
   -1.3070    1.5143   -0.1180 C   0  0  0  0  0  0  0  0  0  0  0  0
   -1.2346    2.6247    0.7134 C   0  0  0  0  0  0  0  0  0  0  0  0
   -2.3379    3.4402    0.8713 C   0  0  0  0  0  0  0  0  0  0  0  0
   -3.5140    3.1521    0.2033 C   0  0  0  0  0  0  0  0  0  0  0  0
   -3.5894    2.0474   -0.6251 C   0  0  0  0  0  0  0  0  0  0  0  0
   -2.4879    1.2312   -0.7923 C   0  0  0  0  0  0  0  0  0  0  0  0
    1.4908    2.3803   -0.6983 O   0  0  0  0  0  0  0  0  0  0  0  0
    6.1490    0.7727    2.0460 H   0  0  0  0  0  0  0  0  0  0  0  0
    6.1316   -1.0065    1.9976 H   0  0  0  0  0  0  0  0  0  0  0  0
    7.4730   -0.1088    1.2472 H   0  0  0  0  0  0  0  0  0  0  0  0
    5.9036    0.8423   -0.4205 H   0  0  0  0  0  0  0  0  0  0  0  0
    5.8862   -0.9369   -0.4689 H   0  0  0  0  0  0  0  0  0  0  0  0
    3.8595   -0.9560    0.9596 H   0  0  0  0  0  0  0  0  0  0  0  0
    3.8769    0.8232    1.0081 H   0  0  0  0  0  0  0  0  0  0  0  0
    3.6315    0.8928   -1.4584 H   0  0  0  0  0  0  0  0  0  0  0  0
    3.6141   -0.8864   -1.5069 H   0  0  0  0  0  0  0  0  0  0  0  0
   -1.9329   -0.3885    1.7607 H   0  0  0  0  0  0  0  0  0  0  0  0
   -3.8803   -1.8246    2.2100 H   0  0  0  0  0  0  0  0  0  0  0  0
   -4.3390   -3.7663    0.7692 H   0  0  0  0  0  0  0  0  0  0  0  0
   -2.8529   -4.2778   -1.1247 H   0  0  0  0  0  0  0  0  0  0  0  0
   -0.9062   -2.8446   -1.5863 H   0  0  0  0  0  0  0  0  0  0  0  0
   -0.3167    2.8498    1.2359 H   0  0  0  0  0  0  0  0  0  0  0  0
   -2.2823    4.3037    1.5176 H   0  0  0  0  0  0  0  0  0  0  0  0
   -4.3755    3.7911    0.3291 H   0  0  0  0  0  0  0  0  0  0  0  0
   -4.5095    1.8250   -1.1451 H   0  0  0  0  0  0  0  0  0  0  0  0
   -2.5474    0.3688   -1.4396 H   0  0  0  0  0  0  0  0  0  0  0  0
    2.4353    2.4756   -0.8823 H   0  0  0  0  0  0  0  0  0  0  0  0
  1  2  1  0  0  0  0
  1 24  1  0  0  0  0
  1 25  1  0  0  0  0
  1 26  1  0  0  0  0
  2  3  1  0  0  0  0
  2 27  1  0  0  0  0
  2 28  1  0  0  0  0
  3  4  1  0  0  0  0
  3 29  1  0  0  0  0
  3 30  1  0  0  0  0
  4  5  1  0  0  0  0
  4 31  1  0  0  0  0
  4 32  1  0  0  0  0
  5  6  2  0  0  0  0
  5  9  1  0  0  0  0
  6  7  1  0  0  0  0
  6 23  1  0  0  0  0
  7  8  1  0  0  0  0
  7 17  1  0  0  0  0
  8  9  1  0  0  0  0
  8 11  1  0  0  0  0
  9 10  2  0  0  0  0
 11 12  2  0  0  0  0
 11 16  1  0  0  0  0
 12 13  1  0  0  0  0
 12 33  1  0  0  0  0
 13 14  2  0  0  0  0
 13 34  1  0  0  0  0
 14 15  1  0  0  0  0
 14 35  1  0  0  0  0
 15 16  2  0  0  0  0
 15 36  1  0  0  0  0
 16 37  1  0  0  0  0
 17 18  2  0  0  0  0
 17 22  1  0  0  0  0
 18 19  1  0  0  0  0
 18 38  1  0  0  0  0
 19 20  2  0  0  0  0
 19 39  1  0  0  0  0
 20 21  1  0  0  0  0
 20 40  1  0  0  0  0
 21 22  2  0  0  0  0
 21 41  1  0  0  0  0
 22 42  1  0  0  0  0
 23 43  1  0  0  0  0
M  END
>  <likely_enzyme_classes>
monooxygenase; dioxygenase

>  <activity>
-10.7

>  <molID>
mol000173

>  <name>
Phenylbutazone

>  <reference>
Baena-Nogueras et al. (2017)

>  <speciation_state_pH7.4>
anionic

>  <substance_type>
nonsteroidal anti-inflammatory drug

>  <smiles>
CCCCc1c(O)n(-c2ccccc2)n(-c2ccccc2)c1=O

>  <inchi>
InChI=1S/C19H20N2O2/c1-2-3-14-17-18(22)20(15-10-6-4-7-11-15)21(19(17)23)16-12-8-5-9-13-16/h4-13,22H,2-3,14H2,1H3

>  <inchikey>
PKYKNPLSFOKASK-UHFFFAOYSA-N

$$$$

emcorina  05091710353D 1   1.00000     0.00000 
CORINA evaluation license 3.49 0066  11.04.2013
 31 32  0  0  0  0  0  0  0  0999 V2000
   -3.5686   -0.3147   -1.7877 C   0  0  0  0  0  0  0  0  0  0  0  0
   -2.9808   -0.6770   -0.4224 C   0  0  0  0  0  0  0  0  0  0  0  0
   -1.5514   -0.2052   -0.3497 C   0  0  0  0  0  0  0  0  0  0  0  0
   -0.5565   -1.1104   -0.1422 C   0  0  0  0  0  0  0  0  0  0  0  0
    0.7777   -0.6745   -0.0742 C   0  0  0  0  0  0  0  0  0  0  0  0
    1.0659    0.7053   -0.2236 C   0  0  0  0  0  0  0  0  0  0  0  0
    0.0117    1.6104   -0.4366 C   0  0  0  0  0  0  0  0  0  0  0  0
   -1.2676    1.1509   -0.5018 C   0  0  0  0  0  0  0  0  0  0  0  0
    2.3989    1.1427   -0.1555 C   0  0  0  0  0  0  0  0  0  0  0  0
    3.3975    0.2348    0.0533 C   0  0  0  0  0  0  0  0  0  0  0  0
    3.1107   -1.1261    0.2003 C   0  0  0  0  0  0  0  0  0  0  0  0
    1.8307   -1.5812    0.1394 C   0  0  0  0  0  0  0  0  0  0  0  0
    4.6868    0.6592    0.1185 O   0  0  0  0  0  0  0  0  0  0  0  0
    5.6873   -0.3370    0.3387 C   0  0  0  0  0  0  0  0  0  0  0  0
   -3.7854   -0.0108    0.6638 C   0  0  0  0  0  0  0  0  0  0  0  0
   -3.2529    0.7673    1.4193 O   0  0  0  0  0  0  0  0  0  0  0  0
   -5.0938   -0.2818    0.7919 O   0  0  0  0  0  0  0  0  0  0  0  0
   -2.9866   -0.7966   -2.5733 H   0  0  0  0  0  0  0  0  0  0  0  0
   -4.6025   -0.6559   -1.8402 H   0  0  0  0  0  0  0  0  0  0  0  0
   -3.5356    0.7665   -1.9222 H   0  0  0  0  0  0  0  0  0  0  0  0
   -3.0138   -1.7581   -0.2878 H   0  0  0  0  0  0  0  0  0  0  0  0
   -0.7913   -2.1586   -0.0298 H   0  0  0  0  0  0  0  0  0  0  0  0
    0.2163    2.6646   -0.5521 H   0  0  0  0  0  0  0  0  0  0  0  0
   -2.0757    1.8484   -0.6656 H   0  0  0  0  0  0  0  0  0  0  0  0
    2.6328    2.1911   -0.2679 H   0  0  0  0  0  0  0  0  0  0  0  0
    3.9171   -1.8254    0.3645 H   0  0  0  0  0  0  0  0  0  0  0  0
    1.6238   -2.6348    0.2553 H   0  0  0  0  0  0  0  0  0  0  0  0
    5.4964   -0.8405    1.2864 H   0  0  0  0  0  0  0  0  0  0  0  0
    5.6594   -1.0654   -0.4717 H   0  0  0  0  0  0  0  0  0  0  0  0
    6.6694    0.1349    0.3694 H   0  0  0  0  0  0  0  0  0  0  0  0
   -5.5681    0.1698    1.5033 H   0  0  0  0  0  0  0  0  0  0  0  0
  1  2  1  0  0  0  0
  1 18  1  0  0  0  0
  1 19  1  0  0  0  0
  1 20  1  0  0  0  0
  2  3  1  0  0  0  0
  2 15  1  0  0  0  0
  2 21  1  0  0  0  0
  3  4  2  0  0  0  0
  3  8  1  0  0  0  0
  4  5  1  0  0  0  0
  4 22  1  0  0  0  0
  5  6  2  0  0  0  0
  5 12  1  0  0  0  0
  6  7  1  0  0  0  0
  6  9  1  0  0  0  0
  7  8  2  0  0  0  0
  7 23  1  0  0  0  0
  8 24  1  0  0  0  0
  9 10  2  0  0  0  0
  9 25  1  0  0  0  0
 10 11  1  0  0  0  0
 10 13  1  0  0  0  0
 11 12  2  0  0  0  0
 11 26  1  0  0  0  0
 12 27  1  0  0  0  0
 13 14  1  0  0  0  0
 14 28  1  0  0  0  0
 14 29  1  0  0  0  0
 14 30  1  0  0  0  0
 15 16  2  0  0  0  0
 15 17  1  0  0  0  0
 17 31  1  0  0  0  0
M  END
>  <likely_enzyme_classes>
monooxygenase

>  <activity>
-11.8

>  <molID>
mol000175

>  <name>
Naproxen

>  <reference>
Baena-Nogueras et al. (2017)

>  <speciation_state_pH7.4>
anionic

>  <substance_type>
nonsteroidal anti-inflammatory drug

>  <smiles>
COc1ccc2cc(C(C)C(=O)O)ccc2c1

>  <inchi>
InChI=1S/C14H14O3/c1-9(14(15)16)10-3-4-12-8-13(17-2)6-5-11(12)7-10/h3-9H,1-2H3,(H,15,16)

>  <inchikey>
CMWTZPSULFXXJA-UHFFFAOYSA-N

$$$$

emcorina  05091710353D 1   1.00000     0.00000 
CORINA evaluation license 3.49 0066  11.04.2013
 32 33  0  0  0  0  0  0  0  0999 V2000
   -2.8519    0.8259    1.9634 C   0  0  0  0  0  0  0  0  0  0  0  0
   -2.1292    0.9277    0.6186 C   0  0  0  0  0  0  0  0  0  0  0  0
   -1.4243   -0.3721    0.3276 C   0  0  0  0  0  0  0  0  0  0  0  0
   -0.0535   -0.3909    0.1594 C   0  0  0  0  0  0  0  0  0  0  0  0
    0.5950   -1.5882   -0.1086 C   0  0  0  0  0  0  0  0  0  0  0  0
   -0.1358   -2.7634   -0.2069 C   0  0  0  0  0  0  0  0  0  0  0  0
   -1.5068   -2.7389   -0.0378 C   0  0  0  0  0  0  0  0  0  0  0  0
   -2.1498   -1.5457    0.2347 C   0  0  0  0  0  0  0  0  0  0  0  0
    1.9435   -1.6094   -0.2749 O   0  0  0  0  0  0  0  0  0  0  0  0
    2.6191   -0.4362   -0.1589 C   0  0  0  0  0  0  0  0  0  0  0  0
    3.1066   -0.0341    1.0765 C   0  0  0  0  0  0  0  0  0  0  0  0
    3.7930    1.1591    1.1917 C   0  0  0  0  0  0  0  0  0  0  0  0
    3.9946    1.9525    0.0773 C   0  0  0  0  0  0  0  0  0  0  0  0
    3.5099    1.5542   -1.1549 C   0  0  0  0  0  0  0  0  0  0  0  0
    2.8277    0.3591   -1.2766 C   0  0  0  0  0  0  0  0  0  0  0  0
   -3.1318    1.2102   -0.4704 C   0  0  0  0  0  0  0  0  0  0  0  0
   -3.2607    0.4356   -1.3887 O   0  0  0  0  0  0  0  0  0  0  0  0
   -3.8817    2.3224   -0.4202 O   0  0  0  0  0  0  0  0  0  0  0  0
   -3.3618    1.7660    2.1739 H   0  0  0  0  0  0  0  0  0  0  0  0
   -3.5821    0.0176    1.9231 H   0  0  0  0  0  0  0  0  0  0  0  0
   -2.1267    0.6216    2.7510 H   0  0  0  0  0  0  0  0  0  0  0  0
   -1.3990    1.7360    0.6589 H   0  0  0  0  0  0  0  0  0  0  0  0
    0.5131    0.5253    0.2361 H   0  0  0  0  0  0  0  0  0  0  0  0
    0.3665   -3.6964   -0.4157 H   0  0  0  0  0  0  0  0  0  0  0  0
   -2.0763   -3.6534   -0.1146 H   0  0  0  0  0  0  0  0  0  0  0  0
   -3.2215   -1.5289    0.3668 H   0  0  0  0  0  0  0  0  0  0  0  0
    2.9491   -0.6533    1.9472 H   0  0  0  0  0  0  0  0  0  0  0  0
    4.1723    1.4727    2.1530 H   0  0  0  0  0  0  0  0  0  0  0  0
    4.5312    2.8852    0.1696 H   0  0  0  0  0  0  0  0  0  0  0  0
    3.6683    2.1759   -2.0236 H   0  0  0  0  0  0  0  0  0  0  0  0
    2.4493    0.0484   -2.2392 H   0  0  0  0  0  0  0  0  0  0  0  0
   -4.5110    2.4605   -1.1414 H   0  0  0  0  0  0  0  0  0  0  0  0
  1  2  1  0  0  0  0
  1 19  1  0  0  0  0
  1 20  1  0  0  0  0
  1 21  1  0  0  0  0
  2  3  1  0  0  0  0
  2 16  1  0  0  0  0
  2 22  1  0  0  0  0
  3  4  2  0  0  0  0
  3  8  1  0  0  0  0
  4  5  1  0  0  0  0
  4 23  1  0  0  0  0
  5  6  2  0  0  0  0
  5  9  1  0  0  0  0
  6  7  1  0  0  0  0
  6 24  1  0  0  0  0
  7  8  2  0  0  0  0
  7 25  1  0  0  0  0
  8 26  1  0  0  0  0
  9 10  1  0  0  0  0
 10 11  2  0  0  0  0
 10 15  1  0  0  0  0
 11 12  1  0  0  0  0
 11 27  1  0  0  0  0
 12 13  2  0  0  0  0
 12 28  1  0  0  0  0
 13 14  1  0  0  0  0
 13 29  1  0  0  0  0
 14 15  2  0  0  0  0
 14 30  1  0  0  0  0
 15 31  1  0  0  0  0
 16 17  2  0  0  0  0
 16 18  1  0  0  0  0
 18 32  1  0  0  0  0
M  END
>  <likely_enzyme_classes>
dioxygenase

>  <activity>
-11.8

>  <molID>
mol000176

>  <name>
Fenoprofen

>  <reference>
Baena-Nogueras et al. (2017)

>  <speciation_state_pH7.4>
anionic

>  <substance_type>
nonsteroidal anti-inflammatory drug

>  <smiles>
CC(C(=O)O)c1cccc(Oc2ccccc2)c1

>  <inchi>
InChI=1S/C15H14O3/c1-11(15(16)17)12-6-5-9-14(10-12)18-13-7-3-2-4-8-13/h2-11H,1H3,(H,16,17)

>  <inchikey>
RDJGLLICXDHJDY-UHFFFAOYSA-N

$$$$

emcorina  05091710353D 1   1.00000     0.00000 
CORINA evaluation license 3.49 0066  11.04.2013
 41 43  0  0  0  0  0  0  0  0999 V2000
    0.0476    2.8730    0.1199 C   0  0  0  0  0  0  0  0  0  0  0  0
    0.6595    1.4960    0.0995 C   0  0  0  0  0  0  0  0  0  0  0  0
    1.7957    1.1679   -0.5314 C   0  0  0  0  0  0  0  0  0  0  0  0
    2.0245   -0.2618   -0.2955 C   0  0  0  0  0  0  0  0  0  0  0  0
    0.9531   -0.7035    0.4994 C   0  0  0  0  0  0  0  0  0  0  0  0
    0.1389    0.3919    0.7298 N   0  0  0  0  0  0  0  0  0  0  0  0
   -0.9970    0.3759    1.4549 C   0  0  0  0  0  0  0  0  0  0  0  0
   -0.9491    0.5063    2.6622 O   0  0  0  0  0  0  0  0  0  0  0  0
   -2.2998    0.1998    0.7825 C   0  0  0  0  0  0  0  0  0  0  0  0
   -3.4851    0.2881    1.5160 C   0  0  0  0  0  0  0  0  0  0  0  0
   -4.6985    0.1232    0.8823 C   0  0  0  0  0  0  0  0  0  0  0  0
   -4.7435   -0.1296   -0.4790 C   0  0  0  0  0  0  0  0  0  0  0  0
   -3.5714   -0.2187   -1.2119 C   0  0  0  0  0  0  0  0  0  0  0  0
   -2.3520   -0.0500   -0.5907 C   0  0  0  0  0  0  0  0  0  0  0  0
   -6.2751   -0.3360   -1.2696 Cl  0  0  0  0  0  0  0  0  0  0  0  0
    0.8934   -2.0351    0.8915 C   0  0  0  0  0  0  0  0  0  0  0  0
    1.8810   -2.9132    0.5014 C   0  0  0  0  0  0  0  0  0  0  0  0
    2.9437   -2.4792   -0.2859 C   0  0  0  0  0  0  0  0  0  0  0  0
    3.0195   -1.1591   -0.6862 C   0  0  0  0  0  0  0  0  0  0  0  0
    3.9106   -3.3579   -0.6627 O   0  0  0  0  0  0  0  0  0  0  0  0
    3.7709   -4.7076   -0.2147 C   0  0  0  0  0  0  0  0  0  0  0  0
    2.6733    2.0940   -1.3333 C   0  0  0  0  0  0  0  0  0  0  0  0
    3.7070    2.7146   -0.4292 C   0  0  0  0  0  0  0  0  0  0  0  0
    3.7288    2.4336    0.7457 O   0  0  0  0  0  0  0  0  0  0  0  0
    4.6035    3.5795   -0.9292 O   0  0  0  0  0  0  0  0  0  0  0  0
   -0.6357    2.9794   -0.7226 H   0  0  0  0  0  0  0  0  0  0  0  0
   -0.5000    3.0135    1.0518 H   0  0  0  0  0  0  0  0  0  0  0  0
    0.8359    3.6221    0.0452 H   0  0  0  0  0  0  0  0  0  0  0  0
   -3.4513    0.4848    2.5774 H   0  0  0  0  0  0  0  0  0  0  0  0
   -5.6157    0.1909    1.4484 H   0  0  0  0  0  0  0  0  0  0  0  0
   -3.6129   -0.4167   -2.2727 H   0  0  0  0  0  0  0  0  0  0  0  0
   -1.4389   -0.1197   -1.1632 H   0  0  0  0  0  0  0  0  0  0  0  0
    0.0731   -2.3819    1.5024 H   0  0  0  0  0  0  0  0  0  0  0  0
    1.8303   -3.9471    0.8095 H   0  0  0  0  0  0  0  0  0  0  0  0
    3.8444   -0.8233   -1.2970 H   0  0  0  0  0  0  0  0  0  0  0  0
    3.7636   -4.7298    0.8751 H   0  0  0  0  0  0  0  0  0  0  0  0
    2.8360   -5.1211   -0.5928 H   0  0  0  0  0  0  0  0  0  0  0  0
    4.6067   -5.3016   -0.5846 H   0  0  0  0  0  0  0  0  0  0  0  0
    3.1718    1.5302   -2.1218 H   0  0  0  0  0  0  0  0  0  0  0  0
    2.0620    2.8789   -1.7787 H   0  0  0  0  0  0  0  0  0  0  0  0
    5.2469    3.9515   -0.3106 H   0  0  0  0  0  0  0  0  0  0  0  0
  1  2  1  0  0  0  0
  1 26  1  0  0  0  0
  1 27  1  0  0  0  0
  1 28  1  0  0  0  0
  2  3  2  0  0  0  0
  2  6  1  0  0  0  0
  3  4  1  0  0  0  0
  3 22  1  0  0  0  0
  4  5  2  0  0  0  0
  4 19  1  0  0  0  0
  5  6  1  0  0  0  0
  5 16  1  0  0  0  0
  6  7  1  0  0  0  0
  7  8  2  0  0  0  0
  7  9  1  0  0  0  0
  9 10  2  0  0  0  0
  9 14  1  0  0  0  0
 10 11  1  0  0  0  0
 10 29  1  0  0  0  0
 11 12  2  0  0  0  0
 11 30  1  0  0  0  0
 12 13  1  0  0  0  0
 12 15  1  0  0  0  0
 13 14  2  0  0  0  0
 13 31  1  0  0  0  0
 14 32  1  0  0  0  0
 16 17  2  0  0  0  0
 16 33  1  0  0  0  0
 17 18  1  0  0  0  0
 17 34  1  0  0  0  0
 18 19  2  0  0  0  0
 18 20  1  0  0  0  0
 19 35  1  0  0  0  0
 20 21  1  0  0  0  0
 21 36  1  0  0  0  0
 21 37  1  0  0  0  0
 21 38  1  0  0  0  0
 22 23  1  0  0  0  0
 22 39  1  0  0  0  0
 22 40  1  0  0  0  0
 23 24  2  0  0  0  0
 23 25  1  0  0  0  0
 25 41  1  0  0  0  0
M  END
>  <likely_enzyme_classes>
monooxygenase

>  <activity>
-10.8

>  <molID>
mol000177

>  <name>
Indomethacin

>  <reference>
Baena-Nogueras et al. (2017)

>  <speciation_state_pH7.4>
anionic

>  <substance_type>
nonsteroidal anti-inflammatory drug

>  <smiles>
COc1ccc2c(c1)c(CC(=O)O)c(C)n2C(=O)c1ccc(Cl)cc1

>  <inchi>
InChI=1S/C19H16ClNO4/c1-11-15(10-18(22)23)16-9-14(25-2)7-8-17(16)21(11)19(24)12-3-5-13(20)6-4-12/h3-9H,10H2,1-2H3,(H,22,23)

>  <inchikey>
CGIGDMFJXJATDK-UHFFFAOYSA-N

$$$$

emcorina  05091710353D 1   1.00000     0.00000 
CORINA evaluation license 3.49 0066  11.04.2013
 33 34  0  0  0  0  0  0  0  0999 V2000
    4.7689   -0.0879   -0.2132 C   0  0  0  0  0  0  0  0  0  0  0  0
    3.3534   -0.0749    0.3037 C   0  0  0  0  0  0  0  0  0  0  0  0
    2.3096   -0.4098   -0.5357 C   0  0  0  0  0  0  0  0  0  0  0  0
    1.0049   -0.3980   -0.0582 C   0  0  0  0  0  0  0  0  0  0  0  0
    0.7554   -0.0490    1.2630 C   0  0  0  0  0  0  0  0  0  0  0  0
    1.8042    0.2849    2.0972 C   0  0  0  0  0  0  0  0  0  0  0  0
    3.1019    0.2670    1.6201 C   0  0  0  0  0  0  0  0  0  0  0  0
   -0.0539   -0.7359   -0.9051 N   0  0  0  0  0  0  0  0  0  0  0  0
   -1.3480   -0.8055   -0.4053 C   0  0  0  0  0  0  0  0  0  0  0  0
   -1.9259   -2.0390   -0.1324 C   0  0  0  0  0  0  0  0  0  0  0  0
   -3.2117   -2.1054    0.3640 C   0  0  0  0  0  0  0  0  0  0  0  0
   -3.9361   -0.9466    0.5943 C   0  0  0  0  0  0  0  0  0  0  0  0
   -3.3805    0.2861    0.3300 C   0  0  0  0  0  0  0  0  0  0  0  0
   -2.0773    0.3711   -0.1676 C   0  0  0  0  0  0  0  0  0  0  0  0
   -1.4767    1.6857   -0.4520 C   0  0  0  0  0  0  0  0  0  0  0  0
   -0.3904    1.7533   -0.9925 O   0  0  0  0  0  0  0  0  0  0  0  0
   -2.1320    2.8135   -0.1128 O   0  0  0  0  0  0  0  0  0  0  0  0
    2.5851   -0.7873   -1.9685 C   0  0  0  0  0  0  0  0  0  0  0  0
    5.0177    0.8940   -0.6159 H   0  0  0  0  0  0  0  0  0  0  0  0
    5.4511   -0.3299    0.6017 H   0  0  0  0  0  0  0  0  0  0  0  0
    4.8617   -0.8371   -0.9994 H   0  0  0  0  0  0  0  0  0  0  0  0
   -0.2576   -0.0385    1.6373 H   0  0  0  0  0  0  0  0  0  0  0  0
    1.6109    0.5567    3.1245 H   0  0  0  0  0  0  0  0  0  0  0  0
    3.9203    0.5282    2.2747 H   0  0  0  0  0  0  0  0  0  0  0  0
    0.1148   -0.9220   -1.8420 H   0  0  0  0  0  0  0  0  0  0  0  0
   -1.3684   -2.9469   -0.3093 H   0  0  0  0  0  0  0  0  0  0  0  0
   -3.6566   -3.0668    0.5742 H   0  0  0  0  0  0  0  0  0  0  0  0
   -4.9418   -1.0102    0.9827 H   0  0  0  0  0  0  0  0  0  0  0  0
   -3.9500    1.1858    0.5107 H   0  0  0  0  0  0  0  0  0  0  0  0
   -1.6979    3.6525   -0.3196 H   0  0  0  0  0  0  0  0  0  0  0  0
    2.7445   -1.8634   -2.0365 H   0  0  0  0  0  0  0  0  0  0  0  0
    1.7337   -0.5062   -2.5884 H   0  0  0  0  0  0  0  0  0  0  0  0
    3.4763   -0.2652   -2.3168 H   0  0  0  0  0  0  0  0  0  0  0  0
  1  2  1  0  0  0  0
  1 19  1  0  0  0  0
  1 20  1  0  0  0  0
  1 21  1  0  0  0  0
  2  3  2  0  0  0  0
  2  7  1  0  0  0  0
  3  4  1  0  0  0  0
  3 18  1  0  0  0  0
  4  5  2  0  0  0  0
  4  8  1  0  0  0  0
  5  6  1  0  0  0  0
  5 22  1  0  0  0  0
  6  7  2  0  0  0  0
  6 23  1  0  0  0  0
  7 24  1  0  0  0  0
  8  9  1  0  0  0  0
  8 25  1  0  0  0  0
  9 10  2  0  0  0  0
  9 14  1  0  0  0  0
 10 11  1  0  0  0  0
 10 26  1  0  0  0  0
 11 12  2  0  0  0  0
 11 27  1  0  0  0  0
 12 13  1  0  0  0  0
 12 28  1  0  0  0  0
 13 14  2  0  0  0  0
 13 29  1  0  0  0  0
 14 15  1  0  0  0  0
 15 16  2  0  0  0  0
 15 17  1  0  0  0  0
 17 30  1  0  0  0  0
 18 31  1  0  0  0  0
 18 32  1  0  0  0  0
 18 33  1  0  0  0  0
M  END
>  <likely_enzyme_classes>
dioxygenase

>  <activity>
-11.4

>  <molID>
mol000178

>  <name>
Mefenamic acid

>  <reference>
Baena-Nogueras et al. (2017)

>  <speciation_state_pH7.4>
anionic

>  <substance_type>
nonsteroidal anti-inflammatory drug

>  <smiles>
Cc1cccc(Nc2ccccc2C(=O)O)c1C

>  <inchi>
InChI=1S/C15H15NO2/c1-10-6-5-9-13(11(10)2)16-14-8-4-3-7-12(14)15(17)18/h3-9,16H,1-2H3,(H,17,18)

>  <inchikey>
HYYBABOKPJLUIN-UHFFFAOYSA-N

$$$$

emcorina  05091710353D 1   1.00000     0.00000 
CORINA evaluation license 3.49 0066  11.04.2013
 45 46  0  0  0  0  0  0  0  0999 V2000
   -5.8290    0.2904   -1.5616 C   0  0  0  0  0  0  0  0  0  0  0  0
   -5.7181   -0.3363   -0.1702 C   0  0  0  0  0  0  0  0  0  0  0  0
   -6.0353    0.7191    0.8912 C   0  0  0  0  0  0  0  0  0  0  0  0
   -6.7117   -1.4936   -0.0515 C   0  0  0  0  0  0  0  0  0  0  0  0
   -4.3532   -0.8399    0.0327 N   0  0  0  0  0  0  0  0  0  0  0  0
   -3.3699    0.2462   -0.0745 C   0  0  0  0  0  0  0  0  0  0  0  0
   -1.9635   -0.3159    0.1421 C   0  0  0  0  0  0  0  0  0  0  0  0
   -0.9394    0.8153    0.0305 C   0  0  0  0  0  0  0  0  0  0  0  0
    0.3801    0.2735    0.1166 O   0  0  0  0  0  0  0  0  0  0  0  0
    1.4151    1.1523    0.0343 C   0  0  0  0  0  0  0  0  0  0  0  0
    1.2265    2.4369   -0.1164 N   0  0  0  0  0  0  0  0  0  0  0  0
    2.7672    3.1447   -0.1695 S   0  0  0  0  0  0  0  0  0  0  0  0
    3.6292    1.6951    0.0123 N   0  0  0  0  0  0  0  0  0  0  0  0
    2.7357    0.7442    0.1104 C   0  0  0  0  0  0  0  0  0  0  0  0
    3.0925   -0.6005    0.2727 N   0  0  0  0  0  0  0  0  0  0  0  0
    4.5538   -0.7568    0.3114 C   0  0  0  0  0  0  0  0  0  0  0  0
    4.8980   -2.2296    0.5492 C   0  0  0  0  0  0  0  0  0  0  0  0
    4.2952   -3.0260   -0.4744 O   0  0  0  0  0  0  0  0  0  0  0  0
    2.8722   -2.8985   -0.5401 C   0  0  0  0  0  0  0  0  0  0  0  0
    2.5076   -1.4325   -0.7889 C   0  0  0  0  0  0  0  0  0  0  0  0
   -1.8813   -0.9065    1.4408 O   0  0  0  0  0  0  0  0  0  0  0  0
   -5.1211    1.1149   -1.6462 H   0  0  0  0  0  0  0  0  0  0  0  0
   -5.6030   -0.4615   -2.3177 H   0  0  0  0  0  0  0  0  0  0  0  0
   -6.8418    0.6641   -1.7121 H   0  0  0  0  0  0  0  0  0  0  0  0
   -7.0481    1.0928    0.7406 H   0  0  0  0  0  0  0  0  0  0  0  0
   -5.9563    0.2727    1.8824 H   0  0  0  0  0  0  0  0  0  0  0  0
   -5.3275    1.5437    0.8066 H   0  0  0  0  0  0  0  0  0  0  0  0
   -6.4858   -2.2455   -0.8076 H   0  0  0  0  0  0  0  0  0  0  0  0
   -6.6328   -1.9401    0.9398 H   0  0  0  0  0  0  0  0  0  0  0  0
   -7.7245   -1.1199   -0.2020 H   0  0  0  0  0  0  0  0  0  0  0  0
   -4.2713   -1.3157    0.9187 H   0  0  0  0  0  0  0  0  0  0  0  0
   -3.4326    0.6966   -1.0651 H   0  0  0  0  0  0  0  0  0  0  0  0
   -3.5796    1.0021    0.6823 H   0  0  0  0  0  0  0  0  0  0  0  0
   -1.7538   -1.0718   -0.6147 H   0  0  0  0  0  0  0  0  0  0  0  0
   -1.0619    1.3233   -0.9261 H   0  0  0  0  0  0  0  0  0  0  0  0
   -1.0938    1.5265    0.8419 H   0  0  0  0  0  0  0  0  0  0  0  0
    4.9799   -0.4321   -0.6379 H   0  0  0  0  0  0  0  0  0  0  0  0
    4.9632   -0.1521    1.1206 H   0  0  0  0  0  0  0  0  0  0  0  0
    5.9798   -2.3595    0.5217 H   0  0  0  0  0  0  0  0  0  0  0  0
    4.5180   -2.5395    1.5227 H   0  0  0  0  0  0  0  0  0  0  0  0
    2.4890   -3.5123   -1.3553 H   0  0  0  0  0  0  0  0  0  0  0  0
    2.4334   -3.2279    0.4018 H   0  0  0  0  0  0  0  0  0  0  0  0
    1.4233   -1.3211   -0.7828 H   0  0  0  0  0  0  0  0  0  0  0  0
    2.9010   -1.1187   -1.7557 H   0  0  0  0  0  0  0  0  0  0  0  0
   -2.0569   -0.2901    2.1649 H   0  0  0  0  0  0  0  0  0  0  0  0
  1  2  1  0  0  0  0
  1 22  1  0  0  0  0
  1 23  1  0  0  0  0
  1 24  1  0  0  0  0
  2  3  1  0  0  0  0
  2  4  1  0  0  0  0
  2  5  1  0  0  0  0
  3 25  1  0  0  0  0
  3 26  1  0  0  0  0
  3 27  1  0  0  0  0
  4 28  1  0  0  0  0
  4 29  1  0  0  0  0
  4 30  1  0  0  0  0
  5  6  1  0  0  0  0
  5 31  1  0  0  0  0
  6  7  1  0  0  0  0
  6 32  1  0  0  0  0
  6 33  1  0  0  0  0
  7  8  1  0  0  0  0
  7 21  1  0  0  0  0
  7 34  1  0  0  0  0
  8  9  1  0  0  0  0
  8 35  1  0  0  0  0
  8 36  1  0  0  0  0
  9 10  1  0  0  0  0
 10 11  2  0  0  0  0
 10 14  1  0  0  0  0
 11 12  1  0  0  0  0
 12 13  1  0  0  0  0
 13 14  2  0  0  0  0
 14 15  1  0  0  0  0
 15 16  1  0  0  0  0
 15 20  1  0  0  0  0
 16 17  1  0  0  0  0
 16 37  1  0  0  0  0
 16 38  1  0  0  0  0
 17 18  1  0  0  0  0
 17 39  1  0  0  0  0
 17 40  1  0  0  0  0
 18 19  1  0  0  0  0
 19 20  1  0  0  0  0
 19 41  1  0  0  0  0
 19 42  1  0  0  0  0
 20 43  1  0  0  0  0
 20 44  1  0  0  0  0
 21 45  1  0  0  0  0
M  END
>  <likely_enzyme_classes>
monooxygenase; amine dehydrogenase

>  <activity>
-11.2

>  <molID>
mol000180

>  <name>
Timolol

>  <reference>
Baena-Nogueras et al. (2017)

>  <speciation_state_pH7.4>
cationic

>  <substance_type>
beta blocker drug

>  <smiles>
CC(C)(C)NCC(O)COc1nsnc1N1CCOCC1

>  <inchi>
InChI=1S/C13H24N4O3S/c1-13(2,3)14-8-10(18)9-20-12-11(15-21-16-12)17-4-6-19-7-5-17/h10,14,18H,4-9H2,1-3H3

>  <inchikey>
BLJRIMJGRPQVNF-UHFFFAOYSA-N

$$$$

emcorina  05091710353D 1   1.00000     0.00000 
CORINA evaluation license 3.49 0066  11.04.2013
 49 50  0  0  0  0  0  0  0  0999 V2000
   -6.0976    0.6577   -1.3690 C   0  0  0  0  0  0  0  0  0  0  0  0
   -5.9547   -0.2088   -0.1162 C   0  0  0  0  0  0  0  0  0  0  0  0
   -6.1554    0.6577    1.1288 C   0  0  0  0  0  0  0  0  0  0  0  0
   -7.0078   -1.3183   -0.1406 C   0  0  0  0  0  0  0  0  0  0  0  0
   -4.6135   -0.8072   -0.0852 N   0  0  0  0  0  0  0  0  0  0  0  0
   -3.5742    0.2307   -0.0611 C   0  0  0  0  0  0  0  0  0  0  0  0
   -2.1945   -0.4297   -0.0292 C   0  0  0  0  0  0  0  0  0  0  0  0
   -1.1121    0.6514   -0.0041 C   0  0  0  0  0  0  0  0  0  0  0  0
    0.1757    0.0382   -0.0917 O   0  0  0  0  0  0  0  0  0  0  0  0
    1.2545    0.8647   -0.0823 C   0  0  0  0  0  0  0  0  0  0  0  0
    1.0712    2.2338    0.0095 C   0  0  0  0  0  0  0  0  0  0  0  0
    2.1692    3.0725    0.0194 C   0  0  0  0  0  0  0  0  0  0  0  0
    3.4396    2.5411   -0.0646 C   0  0  0  0  0  0  0  0  0  0  0  0
    3.6284    1.1677   -0.1598 C   0  0  0  0  0  0  0  0  0  0  0  0
    2.5387    0.3280   -0.1593 C   0  0  0  0  0  0  0  0  0  0  0  0
    2.6687   -1.1700   -0.2489 C   0  0  0  0  0  0  0  0  0  0  0  0
    4.0502   -1.5586   -0.7718 C   0  0  0  0  0  0  0  0  0  0  0  0
    5.1069   -0.8283    0.0653 C   0  0  0  0  0  0  0  0  0  0  0  0
    5.0429    0.6601   -0.2628 C   0  0  0  0  0  0  0  0  0  0  0  0
    4.8372   -1.0212    1.4553 O   0  0  0  0  0  0  0  0  0  0  0  0
    4.2312   -2.9709   -0.6499 O   0  0  0  0  0  0  0  0  0  0  0  0
   -2.0826   -1.2430    1.1405 O   0  0  0  0  0  0  0  0  0  0  0  0
   -5.3473    1.4482   -1.3516 H   0  0  0  0  0  0  0  0  0  0  0  0
   -5.9546    0.0405   -2.2560 H   0  0  0  0  0  0  0  0  0  0  0  0
   -7.0928    1.1018   -1.3921 H   0  0  0  0  0  0  0  0  0  0  0  0
   -7.1506    1.1017    1.1058 H   0  0  0  0  0  0  0  0  0  0  0  0
   -6.0536    0.0404    2.0213 H   0  0  0  0  0  0  0  0  0  0  0  0
   -5.4051    1.4481    1.1462 H   0  0  0  0  0  0  0  0  0  0  0  0
   -6.8648   -1.9356   -1.0275 H   0  0  0  0  0  0  0  0  0  0  0  0
   -6.9060   -1.9356    0.7520 H   0  0  0  0  0  0  0  0  0  0  0  0
   -8.0030   -0.8743   -0.1636 H   0  0  0  0  0  0  0  0  0  0  0  0
   -4.5157   -1.4351    0.6987 H   0  0  0  0  0  0  0  0  0  0  0  0
   -3.6596    0.8511   -0.9532 H   0  0  0  0  0  0  0  0  0  0  0  0
   -3.7008    0.8510    0.8262 H   0  0  0  0  0  0  0  0  0  0  0  0
   -2.0680   -1.0500   -0.9165 H   0  0  0  0  0  0  0  0  0  0  0  0
   -1.2520    1.3253   -0.8493 H   0  0  0  0  0  0  0  0  0  0  0  0
   -1.1834    1.2154    0.9259 H   0  0  0  0  0  0  0  0  0  0  0  0
    0.0743    2.6445    0.0727 H   0  0  0  0  0  0  0  0  0  0  0  0
    2.0333    4.1414    0.0925 H   0  0  0  0  0  0  0  0  0  0  0  0
    4.2959    3.1992   -0.0568 H   0  0  0  0  0  0  0  0  0  0  0  0
    2.5241   -1.6031    0.7408 H   0  0  0  0  0  0  0  0  0  0  0  0
    1.9065   -1.5571   -0.9250 H   0  0  0  0  0  0  0  0  0  0  0  0
    4.1429   -1.2650   -1.8174 H   0  0  0  0  0  0  0  0  0  0  0  0
    6.0971   -1.2159   -0.1742 H   0  0  0  0  0  0  0  0  0  0  0  0
    5.4019    0.8197   -1.2796 H   0  0  0  0  0  0  0  0  0  0  0  0
    5.6783    1.2090    0.4322 H   0  0  0  0  0  0  0  0  0  0  0  0
    5.4692   -0.5848    2.0429 H   0  0  0  0  0  0  0  0  0  0  0  0
    3.5842   -3.4943   -1.1423 H   0  0  0  0  0  0  0  0  0  0  0  0
   -2.1850   -0.7558    1.9695 H   0  0  0  0  0  0  0  0  0  0  0  0
  1  2  1  0  0  0  0
  1 23  1  0  0  0  0
  1 24  1  0  0  0  0
  1 25  1  0  0  0  0
  2  3  1  0  0  0  0
  2  4  1  0  0  0  0
  2  5  1  0  0  0  0
  3 26  1  0  0  0  0
  3 27  1  0  0  0  0
  3 28  1  0  0  0  0
  4 29  1  0  0  0  0
  4 30  1  0  0  0  0
  4 31  1  0  0  0  0
  5  6  1  0  0  0  0
  5 32  1  0  0  0  0
  6  7  1  0  0  0  0
  6 33  1  0  0  0  0
  6 34  1  0  0  0  0
  7  8  1  0  0  0  0
  7 22  1  0  0  0  0
  7 35  1  0  0  0  0
  8  9  1  0  0  0  0
  8 36  1  0  0  0  0
  8 37  1  0  0  0  0
  9 10  1  0  0  0  0
 10 11  2  0  0  0  0
 10 15  1  0  0  0  0
 11 12  1  0  0  0  0
 11 38  1  0  0  0  0
 12 13  2  0  0  0  0
 12 39  1  0  0  0  0
 13 14  1  0  0  0  0
 13 40  1  0  0  0  0
 14 15  2  0  0  0  0
 14 19  1  0  0  0  0
 15 16  1  0  0  0  0
 16 17  1  0  0  0  0
 16 41  1  0  0  0  0
 16 42  1  0  0  0  0
 17 18  1  0  0  0  0
 17 21  1  0  0  0  0
 17 43  1  0  0  0  0
 18 19  1  0  0  0  0
 18 20  1  0  0  0  0
 18 44  1  0  0  0  0
 19 45  1  0  0  0  0
 19 46  1  0  0  0  0
 20 47  1  0  0  0  0
 21 48  1  0  0  0  0
 22 49  1  0  0  0  0
M  END
>  <likely_enzyme_classes>
monooxygenase

>  <activity>
-10.9

>  <molID>
mol000181

>  <name>
Nadolol

>  <reference>
Baena-Nogueras et al. (2017)

>  <speciation_state_pH7.4>
cationic

>  <substance_type>
beta blocker drug

>  <smiles>
CC(C)(C)NCC(O)COc1cccc2c1CC(O)C(O)C2

>  <inchi>
InChI=1S/C17H27NO4/c1-17(2,3)18-9-12(19)10-22-16-6-4-5-11-7-14(20)15(21)8-13(11)16/h4-6,12,14-15,18-21H,7-10H2,1-3H3

>  <inchikey>
VWPOSFSPZNDTMJ-UHFFFAOYSA-N

$$$$

emcorina  05091710353D 1   1.00000     0.00000 
CORINA evaluation license 3.49 0066  11.04.2013
 40 41  0  0  0  0  0  0  0  0999 V2000
    4.4205    4.3902   -0.3787 C   0  0  0  0  0  0  0  0  0  0  0  0
    4.5242    2.9422   -0.1539 N   0  0  0  0  0  0  0  0  0  0  0  0
    3.2152    2.2917   -0.2999 C   0  0  0  0  0  0  0  0  0  0  0  0
    3.3632    0.7881   -0.0591 C   0  0  0  0  0  0  0  0  0  0  0  0
    1.9998    0.1106   -0.2111 C   0  0  0  0  0  0  0  0  0  0  0  0
    2.1654   -1.3828   -0.0957 C   0  0  0  0  0  0  0  0  0  0  0  0
    2.3060   -2.1527   -1.2352 C   0  0  0  0  0  0  0  0  0  0  0  0
    2.4578   -3.5227   -1.1293 C   0  0  0  0  0  0  0  0  0  0  0  0
    2.4694   -4.1226    0.1160 C   0  0  0  0  0  0  0  0  0  0  0  0
    2.3296   -3.3526    1.2555 C   0  0  0  0  0  0  0  0  0  0  0  0
    2.1822   -1.9822    1.1498 C   0  0  0  0  0  0  0  0  0  0  0  0
    1.1209    0.5732    0.8162 O   0  0  0  0  0  0  0  0  0  0  0  0
   -0.2129    0.5004    0.5660 C   0  0  0  0  0  0  0  0  0  0  0  0
   -1.1197    1.0332    1.4708 C   0  0  0  0  0  0  0  0  0  0  0  0
   -2.4750    0.9578    1.2142 C   0  0  0  0  0  0  0  0  0  0  0  0
   -2.9280    0.3520    0.0568 C   0  0  0  0  0  0  0  0  0  0  0  0
   -2.0264   -0.1801   -0.8462 C   0  0  0  0  0  0  0  0  0  0  0  0
   -0.6698   -0.1019   -0.5972 C   0  0  0  0  0  0  0  0  0  0  0  0
   -4.4071    0.2712   -0.2205 C   0  0  0  0  0  0  0  0  0  0  0  0
   -4.8103    1.4049   -0.9342 F   0  0  0  0  0  0  0  0  0  0  0  0
   -4.6781   -0.8754   -0.9748 F   0  0  0  0  0  0  0  0  0  0  0  0
   -5.1059    0.2092    0.9899 F   0  0  0  0  0  0  0  0  0  0  0  0
    4.0484    4.5758   -1.3863 H   0  0  0  0  0  0  0  0  0  0  0  0
    3.7326    4.8223    0.3480 H   0  0  0  0  0  0  0  0  0  0  0  0
    5.4036    4.8469   -0.2646 H   0  0  0  0  0  0  0  0  0  0  0  0
    5.2048    2.5280   -0.7730 H   0  0  0  0  0  0  0  0  0  0  0  0
    2.5189    2.7093    0.4274 H   0  0  0  0  0  0  0  0  0  0  0  0
    2.8348    2.4627   -1.3069 H   0  0  0  0  0  0  0  0  0  0  0  0
    4.0595    0.3705   -0.7863 H   0  0  0  0  0  0  0  0  0  0  0  0
    3.7436    0.6171    0.9479 H   0  0  0  0  0  0  0  0  0  0  0  0
    1.5793    0.3552   -1.1865 H   0  0  0  0  0  0  0  0  0  0  0  0
    2.2970   -1.6840   -2.2081 H   0  0  0  0  0  0  0  0  0  0  0  0
    2.5670   -4.1242   -2.0196 H   0  0  0  0  0  0  0  0  0  0  0  0
    2.5872   -5.1930    0.1986 H   0  0  0  0  0  0  0  0  0  0  0  0
    2.3383   -3.8214    2.2284 H   0  0  0  0  0  0  0  0  0  0  0  0
    2.0730   -1.3806    2.0401 H   0  0  0  0  0  0  0  0  0  0  0  0
   -0.7663    1.5062    2.3751 H   0  0  0  0  0  0  0  0  0  0  0  0
   -3.1813    1.3722    1.9184 H   0  0  0  0  0  0  0  0  0  0  0  0
   -2.3828   -0.6535   -1.7492 H   0  0  0  0  0  0  0  0  0  0  0  0
    0.0341   -0.5177   -1.3029 H   0  0  0  0  0  0  0  0  0  0  0  0
  1  2  1  0  0  0  0
  1 23  1  0  0  0  0
  1 24  1  0  0  0  0
  1 25  1  0  0  0  0
  2  3  1  0  0  0  0
  2 26  1  0  0  0  0
  3  4  1  0  0  0  0
  3 27  1  0  0  0  0
  3 28  1  0  0  0  0
  4  5  1  0  0  0  0
  4 29  1  0  0  0  0
  4 30  1  0  0  0  0
  5  6  1  0  0  0  0
  5 12  1  0  0  0  0
  5 31  1  0  0  0  0
  6  7  2  0  0  0  0
  6 11  1  0  0  0  0
  7  8  1  0  0  0  0
  7 32  1  0  0  0  0
  8  9  2  0  0  0  0
  8 33  1  0  0  0  0
  9 10  1  0  0  0  0
  9 34  1  0  0  0  0
 10 11  2  0  0  0  0
 10 35  1  0  0  0  0
 11 36  1  0  0  0  0
 12 13  1  0  0  0  0
 13 14  2  0  0  0  0
 13 18  1  0  0  0  0
 14 15  1  0  0  0  0
 14 37  1  0  0  0  0
 15 16  2  0  0  0  0
 15 38  1  0  0  0  0
 16 17  1  0  0  0  0
 16 19  1  0  0  0  0
 17 18  2  0  0  0  0
 17 39  1  0  0  0  0
 18 40  1  0  0  0  0
 19 20  1  0  0  0  0
 19 21  1  0  0  0  0
 19 22  1  0  0  0  0
M  END
>  <likely_enzyme_classes>
monooxygenase

>  <activity>
-11.2

>  <molID>
mol000182

>  <name>
Fluoxetine

>  <reference>
Baena-Nogueras et al. (2017)

>  <speciation_state_pH7.4>
cationic

>  <substance_type>
anticonvulsant drug

>  <smiles>
CNCCC(Oc1ccc(C(F)(F)F)cc1)c1ccccc1

>  <inchi>
InChI=1S/C17H18F3NO/c1-21-12-11-16(13-5-3-2-4-6-13)22-15-9-7-14(8-10-15)17(18,19)20/h2-10,16,21H,11-12H2,1H3

>  <inchikey>
RTHCYVBBDHJXIQ-UHFFFAOYSA-N

$$$$

emcorina  05091710353D 1   1.00000     0.00000 
CORINA evaluation license 3.49 0066  11.04.2013
 24 25  0  0  0  0  0  0  0  0999 V2000
    3.2779    0.0000    1.3645 C   0  0  0  0  0  0  0  0  0  0  0  0
    2.0162    0.5625    1.4121 C   0  0  0  0  0  0  0  0  0  0  0  0
    1.3090    0.7785    0.2399 C   0  0  0  0  0  0  0  0  0  0  0  0
    1.8716    0.4280   -0.9838 C   0  0  0  0  0  0  0  0  0  0  0  0
    3.1368   -0.1355   -1.0254 C   0  0  0  0  0  0  0  0  0  0  0  0
    3.8377   -0.3486    0.1481 C   0  0  0  0  0  0  0  0  0  0  0  0
    5.4227   -1.0547    0.0945 Cl  0  0  0  0  0  0  0  0  0  0  0  0
    1.1810    0.6377   -2.1363 O   0  0  0  0  0  0  0  0  0  0  0  0
    0.0674    1.3314    0.2855 O   0  0  0  0  0  0  0  0  0  0  0  0
   -1.0048    0.4996    0.2080 C   0  0  0  0  0  0  0  0  0  0  0  0
   -2.2875    1.0246    0.1269 C   0  0  0  0  0  0  0  0  0  0  0  0
   -3.3763    0.1764    0.0477 C   0  0  0  0  0  0  0  0  0  0  0  0
   -3.1878   -1.1942    0.0492 C   0  0  0  0  0  0  0  0  0  0  0  0
   -1.9099   -1.7190    0.1304 C   0  0  0  0  0  0  0  0  0  0  0  0
   -0.8186   -0.8751    0.2040 C   0  0  0  0  0  0  0  0  0  0  0  0
   -4.5566   -2.2574   -0.0504 Cl  0  0  0  0  0  0  0  0  0  0  0  0
   -2.5240    2.7444    0.1256 Cl  0  0  0  0  0  0  0  0  0  0  0  0
    3.8298   -0.1636    2.2784 H   0  0  0  0  0  0  0  0  0  0  0  0
    1.5813    0.8334    2.3628 H   0  0  0  0  0  0  0  0  0  0  0  0
    3.5754   -0.4087   -1.9737 H   0  0  0  0  0  0  0  0  0  0  0  0
    1.3375    1.5040   -2.5365 H   0  0  0  0  0  0  0  0  0  0  0  0
   -4.3745    0.5839   -0.0151 H   0  0  0  0  0  0  0  0  0  0  0  0
   -1.7653   -2.7892    0.1321 H   0  0  0  0  0  0  0  0  0  0  0  0
    0.1784   -1.2855    0.2669 H   0  0  0  0  0  0  0  0  0  0  0  0
  1  2  2  0  0  0  0
  1  6  1  0  0  0  0
  1 18  1  0  0  0  0
  2  3  1  0  0  0  0
  2 19  1  0  0  0  0
  3  4  2  0  0  0  0
  3  9  1  0  0  0  0
  4  5  1  0  0  0  0
  4  8  1  0  0  0  0
  5  6  2  0  0  0  0
  5 20  1  0  0  0  0
  6  7  1  0  0  0  0
  8 21  1  0  0  0  0
  9 10  1  0  0  0  0
 10 11  2  0  0  0  0
 10 15  1  0  0  0  0
 11 12  1  0  0  0  0
 11 17  1  0  0  0  0
 12 13  2  0  0  0  0
 12 22  1  0  0  0  0
 13 14  1  0  0  0  0
 13 16  1  0  0  0  0
 14 15  2  0  0  0  0
 14 23  1  0  0  0  0
 15 24  1  0  0  0  0
M  END
>  <likely_enzyme_classes>
dioxygenase

>  <activity>
-10.9

>  <molID>
mol000184

>  <name>
Triclosan

>  <reference>
Baena-Nogueras et al. (2017)

>  <speciation_state_pH7.4>
neutral

>  <substance_type>
Personal care product

>  <smiles>
Oc1cc(Cl)ccc1Oc1ccc(Cl)cc1Cl

>  <inchi>
InChI=1S/C12H7Cl3O2/c13-7-1-3-11(9(15)5-7)17-12-4-2-8(14)6-10(12)16/h1-6,16H

>  <inchikey>
XEFQLINVKFYRCS-UHFFFAOYSA-N

$$$$

emcorina  05091710353D 1   1.00000     0.00000 
CORINA evaluation license 3.49 0066  11.04.2013
 25 26  0  0  0  0  0  0  0  0999 V2000
    3.6664   -1.5609   -0.3704 C   0  0  0  0  0  0  0  0  0  0  0  0
    2.3675   -2.0690    0.0639 N   0  0  0  0  0  0  0  0  0  0  0  0
    1.2026   -1.3067    0.0473 C   0  0  0  0  0  0  0  0  0  0  0  0
   -0.0278   -1.9610    0.0420 C   0  0  0  0  0  0  0  0  0  0  0  0
   -1.2013   -1.2338    0.0439 C   0  0  0  0  0  0  0  0  0  0  0  0
   -1.1643    0.1495    0.0502 C   0  0  0  0  0  0  0  0  0  0  0  0
    0.0537    0.8054    0.0468 C   0  0  0  0  0  0  0  0  0  0  0  0
    1.2275    0.0819    0.0421 C   0  0  0  0  0  0  0  0  0  0  0  0
    2.7809    0.9249    0.0179 S   0  0  0  0  0  0  0  0  0  0  0  0
    2.9808    1.3787   -1.3138 O   0  0  0  0  0  0  0  0  0  0  0  0
    2.7994    1.7835    1.1501 O   0  0  0  0  0  0  0  0  0  0  0  0
    3.9151   -0.2665    0.2962 N   0  0  0  0  0  0  0  0  0  0  0  0
   -2.6648    1.0732    0.0620 S   0  0  0  0  0  0  0  0  0  0  0  0
   -3.4745    0.5101    1.0850 O   0  0  0  0  0  0  0  0  0  0  0  0
   -2.2922    2.4442    0.0319 O   0  0  0  0  0  0  0  0  0  0  0  0
   -3.4397    0.7676   -1.3692 N   0  0  0  0  0  0  0  0  0  0  0  0
   -2.7292   -2.0579    0.0376 Cl  0  0  0  0  0  0  0  0  0  0  0  0
    4.4471   -2.2700   -0.0950 H   0  0  0  0  0  0  0  0  0  0  0  0
    3.6614   -1.4206   -1.4513 H   0  0  0  0  0  0  0  0  0  0  0  0
    2.3138   -2.9846    0.3797 H   0  0  0  0  0  0  0  0  0  0  0  0
   -0.0635   -3.0404    0.0362 H   0  0  0  0  0  0  0  0  0  0  0  0
    0.0853    1.8849    0.0475 H   0  0  0  0  0  0  0  0  0  0  0  0
    4.6899   -0.1183    0.8607 H   0  0  0  0  0  0  0  0  0  0  0  0
   -4.4085    0.7940   -1.4115 H   0  0  0  0  0  0  0  0  0  0  0  0
   -2.9250    0.5623   -2.1653 H   0  0  0  0  0  0  0  0  0  0  0  0
  1  2  1  0  0  0  0
  1 12  1  0  0  0  0
  1 18  1  0  0  0  0
  1 19  1  0  0  0  0
  2  3  1  0  0  0  0
  2 20  1  0  0  0  0
  3  4  2  0  0  0  0
  3  8  1  0  0  0  0
  4  5  1  0  0  0  0
  4 21  1  0  0  0  0
  5  6  2  0  0  0  0
  5 17  1  0  0  0  0
  6  7  1  0  0  0  0
  6 13  1  0  0  0  0
  7  8  2  0  0  0  0
  7 22  1  0  0  0  0
  8  9  1  0  0  0  0
  9 10  2  0  0  0  0
  9 11  2  0  0  0  0
  9 12  1  0  0  0  0
 12 23  1  0  0  0  0
 13 14  2  0  0  0  0
 13 15  2  0  0  0  0
 13 16  1  0  0  0  0
 16 24  1  0  0  0  0
 16 25  1  0  0  0  0
M  END
>  <likely_enzyme_classes>
amine dehydrogenase;sulfanilamide hydrolase

>  <activity>
-10.8

>  <molID>
mol000187

>  <name>
Hydrochlorothiazide

>  <reference>
Baena-Nogueras et al. (2017)

>  <speciation_state_pH7.4>
neutral

>  <substance_type>
diuretic drug

>  <smiles>
NS(=O)(=O)c1cc2c(cc1Cl)NCNS2(=O)=O

>  <inchi>
InChI=1S/C7H8ClN3O4S2/c8-4-1-5-7(2-6(4)16(9,12)13)17(14,15)11-3-10-5/h1-2,10-11H,3H2,(H2,9,12,13)

>  <inchikey>
JZUFKLXOESDKRF-UHFFFAOYSA-N

$$$$

emcorina  05091710353D 1   1.00000     0.00000 
CORINA evaluation license 3.49 0066  11.04.2013
141144  0  0  0  0  0  0  0  0999 V2000
    4.6388    4.5978    0.9025 C   0  0  0  0  0  0  0  0  0  0  0  0
    5.2869    3.2164    0.7909 C   0  0  0  0  0  0  0  0  0  0  0  0
    4.3366    2.1578    1.3648 C   0  0  0  0  0  0  0  0  0  0  0  0
    3.1456    2.0913    0.5467 O   0  0  0  0  0  0  0  0  0  0  0  0
    2.1903    3.0082    0.7776 C   0  0  0  0  0  0  0  0  0  0  0  0
    2.2388    3.7037    1.7641 O   0  0  0  0  0  0  0  0  0  0  0  0
    1.0675    3.1994   -0.2109 C   0  0  0  0  0  0  0  0  0  0  0  0
   -0.2765    2.9509    0.4700 C   0  0  0  0  0  0  0  0  0  0  0  0
   -0.7729    4.1761    1.0147 O   0  0  0  0  0  0  0  0  0  0  0  0
   -1.2901    2.4074   -0.5464 C   0  0  0  0  0  0  0  0  0  0  0  0
   -1.4446    3.3942   -1.6936 C   0  0  0  0  0  0  0  0  0  0  0  0
   -0.8667    1.0066   -0.9693 C   0  0  0  0  0  0  0  0  0  0  0  0
   -1.6533    0.0787   -0.1965 O   0  0  0  0  0  0  0  0  0  0  0  0
   -3.0532    0.1270   -0.4794 C   0  0  0  0  0  0  0  0  0  0  0  0
   -3.6272    1.2745    0.1497 O   0  0  0  0  0  0  0  0  0  0  0  0
   -5.0267    1.4334   -0.0918 C   0  0  0  0  0  0  0  0  0  0  0  0
   -5.5235    2.7028    0.6031 C   0  0  0  0  0  0  0  0  0  0  0  0
   -5.7795    0.2206    0.4615 C   0  0  0  0  0  0  0  0  0  0  0  0
   -7.1725    0.3495    0.1701 O   0  0  0  0  0  0  0  0  0  0  0  0
   -7.9509    0.8456    1.2610 C   0  0  0  0  0  0  0  0  0  0  0  0
   -9.3294    1.2741    0.7513 C   0  0  0  0  0  0  0  0  0  0  0  0
  -10.0560    0.0529    0.1793 C   0  0  0  0  0  0  0  0  0  0  0  0
  -11.4649    0.4554   -0.2611 C   0  0  0  0  0  0  0  0  0  0  0  0
   -9.3304   -0.4526   -0.9433 O   0  0  0  0  0  0  0  0  0  0  0  0
  -10.1464   -1.0271    1.2618 C   0  0  0  0  0  0  0  0  0  0  0  0
  -10.7579   -2.1985    0.7178 O   0  0  0  0  0  0  0  0  0  0  0  0
   -8.7363   -1.3667    1.7518 C   0  0  0  0  0  0  0  0  0  0  0  0
   -8.8221   -2.4015    2.8755 C   0  0  0  0  0  0  0  0  0  0  0  0
   -8.1056   -0.1819    2.2422 O   0  0  0  0  0  0  0  0  0  0  0  0
   -5.2348   -1.0516   -0.1952 C   0  0  0  0  0  0  0  0  0  0  0  0
   -3.7267   -1.1383    0.0582 C   0  0  0  0  0  0  0  0  0  0  0  0
   -3.1950   -2.2835   -0.6111 O   0  0  0  0  0  0  0  0  0  0  0  0
   -5.8989   -2.2268    0.3845 N   0  0  0  0  0  0  0  0  0  0  0  0
   -5.6377   -3.4287   -0.4187 C   0  0  0  0  0  0  0  0  0  0  0  0
   -5.4893   -2.4275    1.7809 C   0  0  0  0  0  0  0  0  0  0  0  0
   -1.0527    0.6878   -2.4403 C   0  0  0  0  0  0  0  0  0  0  0  0
    0.1103    1.1891   -3.2929 C   0  0  0  0  0  0  0  0  0  0  0  0
   -0.2084    0.9787   -4.7507 C   0  0  0  0  0  0  0  0  0  0  0  0
    0.5055    0.2810   -5.4303 O   0  0  0  0  0  0  0  0  0  0  0  0
   -1.2563   -0.8066   -2.6664 C   0  0  0  0  0  0  0  0  0  0  0  0
   -0.1089   -1.7078   -2.2724 C   0  0  0  0  0  0  0  0  0  0  0  0
    0.7681   -2.0600   -3.4748 C   0  0  0  0  0  0  0  0  0  0  0  0
    0.7173   -1.2050   -1.1255 C   0  0  0  0  0  0  0  0  0  0  0  0
    0.2693   -1.3654    0.0009 O   0  0  0  0  0  0  0  0  0  0  0  0
    1.9420   -0.5653   -1.2889 C   0  0  0  0  0  0  0  0  0  0  0  0
    2.9322   -0.3350   -0.4156 C   0  0  0  0  0  0  0  0  0  0  0  0
    3.2143   -0.8488    0.8983 C   0  0  0  0  0  0  0  0  0  0  0  0
    2.5019   -2.0509    1.4885 C   0  0  0  0  0  0  0  0  0  0  0  0
    4.1453   -0.3214    1.7051 C   0  0  0  0  0  0  0  0  0  0  0  0
    5.0598    0.8193    1.4277 C   0  0  0  0  0  0  0  0  0  0  0  0
    5.9188    0.5914    0.1871 C   0  0  0  0  0  0  0  0  0  0  0  0
    6.7574   -0.5475    0.3910 O   0  0  0  0  0  0  0  0  0  0  0  0
    7.6070   -0.8497   -0.7176 C   0  0  0  0  0  0  0  0  0  0  0  0
    8.6149    0.1566   -0.8337 O   0  0  0  0  0  0  0  0  0  0  0  0
    9.4362    0.2965    0.3274 C   0  0  0  0  0  0  0  0  0  0  0  0
   10.4548    1.4153    0.1001 C   0  0  0  0  0  0  0  0  0  0  0  0
   10.1732   -1.0192    0.5910 C   0  0  0  0  0  0  0  0  0  0  0  0
   10.9504   -0.9004    1.7842 O   0  0  0  0  0  0  0  0  0  0  0  0
    9.1481   -2.1451    0.7577 C   0  0  0  0  0  0  0  0  0  0  0  0
    8.3308   -1.8821    1.9000 O   0  0  0  0  0  0  0  0  0  0  0  0
    8.8400   -2.4300    3.1176 C   0  0  0  0  0  0  0  0  0  0  0  0
    8.2705   -2.2114   -0.4960 C   0  0  0  0  0  0  0  0  0  0  0  0
    7.2638   -3.2105   -0.3219 O   0  0  0  0  0  0  0  0  0  0  0  0
    6.8494   -3.8362   -1.5379 C   0  0  0  0  0  0  0  0  0  0  0  0
    3.7039    4.6069    0.3422 H   0  0  0  0  0  0  0  0  0  0  0  0
    4.4367    4.8208    1.9501 H   0  0  0  0  0  0  0  0  0  0  0  0
    5.3141    5.3500    0.4946 H   0  0  0  0  0  0  0  0  0  0  0  0
    5.4890    2.9935   -0.2568 H   0  0  0  0  0  0  0  0  0  0  0  0
    6.2218    3.2074    1.3512 H   0  0  0  0  0  0  0  0  0  0  0  0
    4.0554    2.4569    2.3806 H   0  0  0  0  0  0  0  0  0  0  0  0
    1.1005    4.2259   -0.5843 H   0  0  0  0  0  0  0  0  0  0  0  0
    1.2020    2.5103   -1.0424 H   0  0  0  0  0  0  0  0  0  0  0  0
   -0.1516    2.2249    1.2735 H   0  0  0  0  0  0  0  0  0  0  0  0
   -0.1906    4.5779    1.6740 H   0  0  0  0  0  0  0  0  0  0  0  0
   -2.2622    2.3275   -0.0282 H   0  0  0  0  0  0  0  0  0  0  0  0
   -0.4813    3.5351   -2.1838 H   0  0  0  0  0  0  0  0  0  0  0  0
   -2.1649    3.0050   -2.4132 H   0  0  0  0  0  0  0  0  0  0  0  0
   -1.7982    4.3496   -1.3060 H   0  0  0  0  0  0  0  0  0  0  0  0
    0.1833    0.8693   -0.6892 H   0  0  0  0  0  0  0  0  0  0  0  0
   -3.2043    0.1895   -1.5571 H   0  0  0  0  0  0  0  0  0  0  0  0
   -5.2038    1.5132   -1.1643 H   0  0  0  0  0  0  0  0  0  0  0  0
   -4.9993    3.5680    0.1974 H   0  0  0  0  0  0  0  0  0  0  0  0
   -6.5944    2.8144    0.4336 H   0  0  0  0  0  0  0  0  0  0  0  0
   -5.3307    2.6302    1.6735 H   0  0  0  0  0  0  0  0  0  0  0  0
   -5.6367    0.1644    1.5406 H   0  0  0  0  0  0  0  0  0  0  0  0
   -7.4462    1.7021    1.7079 H   0  0  0  0  0  0  0  0  0  0  0  0
   -9.9093    1.6900    1.5752 H   0  0  0  0  0  0  0  0  0  0  0  0
   -9.2117    2.0263   -0.0287 H   0  0  0  0  0  0  0  0  0  0  0  0
  -11.3993    1.2294   -1.0257 H   0  0  0  0  0  0  0  0  0  0  0  0
  -11.9807   -0.4144   -0.6679 H   0  0  0  0  0  0  0  0  0  0  0  0
  -12.0183    0.8378    0.5966 H   0  0  0  0  0  0  0  0  0  0  0  0
   -9.2299    0.1829   -1.6652 H   0  0  0  0  0  0  0  0  0  0  0  0
  -10.7437   -0.6580    2.0955 H   0  0  0  0  0  0  0  0  0  0  0  0
  -10.8475   -2.9249    1.3497 H   0  0  0  0  0  0  0  0  0  0  0  0
   -8.1529   -1.7742    0.9262 H   0  0  0  0  0  0  0  0  0  0  0  0
   -9.3041   -3.3048    2.5016 H   0  0  0  0  0  0  0  0  0  0  0  0
   -7.8181   -2.6432    3.2243 H   0  0  0  0  0  0  0  0  0  0  0  0
   -9.4052   -1.9937    3.7012 H   0  0  0  0  0  0  0  0  0  0  0  0
   -5.4229   -1.0173   -1.2683 H   0  0  0  0  0  0  0  0  0  0  0  0
   -3.5415   -1.2237    1.1290 H   0  0  0  0  0  0  0  0  0  0  0  0
   -2.2424   -2.4007   -0.4936 H   0  0  0  0  0  0  0  0  0  0  0  0
   -4.5866   -3.7033   -0.3305 H   0  0  0  0  0  0  0  0  0  0  0  0
   -6.2590   -4.2486   -0.0584 H   0  0  0  0  0  0  0  0  0  0  0  0
   -5.8738   -3.2259   -1.4634 H   0  0  0  0  0  0  0  0  0  0  0  0
   -5.7577   -1.5493    2.3681 H   0  0  0  0  0  0  0  0  0  0  0  0
   -5.9956   -3.3039    2.1856 H   0  0  0  0  0  0  0  0  0  0  0  0
   -4.4107   -2.5784    1.8250 H   0  0  0  0  0  0  0  0  0  0  0  0
   -1.9740    1.1803   -2.8039 H   0  0  0  0  0  0  0  0  0  0  0  0
    0.2672    2.2512   -3.1049 H   0  0  0  0  0  0  0  0  0  0  0  0
    1.0141    0.6371   -3.0352 H   0  0  0  0  0  0  0  0  0  0  0  0
   -1.0753    1.4520   -5.1877 H   0  0  0  0  0  0  0  0  0  0  0  0
   -2.1684   -1.1230   -2.1397 H   0  0  0  0  0  0  0  0  0  0  0  0
   -1.4657   -0.9556   -3.7419 H   0  0  0  0  0  0  0  0  0  0  0  0
   -0.5555   -2.6715   -1.9301 H   0  0  0  0  0  0  0  0  0  0  0  0
    1.1796   -1.1466   -3.9043 H   0  0  0  0  0  0  0  0  0  0  0  0
    1.5825   -2.7090   -3.1529 H   0  0  0  0  0  0  0  0  0  0  0  0
    0.1673   -2.5753   -4.2242 H   0  0  0  0  0  0  0  0  0  0  0  0
    2.1597   -0.1738   -2.3056 H   0  0  0  0  0  0  0  0  0  0  0  0
    3.6504    0.4207   -0.8076 H   0  0  0  0  0  0  0  0  0  0  0  0
    1.8386   -2.4838    0.7397 H   0  0  0  0  0  0  0  0  0  0  0  0
    3.2373   -2.7944    1.7958 H   0  0  0  0  0  0  0  0  0  0  0  0
    1.9178   -1.7382    2.3540 H   0  0  0  0  0  0  0  0  0  0  0  0
    4.2297   -0.8063    2.6917 H   0  0  0  0  0  0  0  0  0  0  0  0
    5.7671    0.8829    2.2879 H   0  0  0  0  0  0  0  0  0  0  0  0
    5.2739    0.4183   -0.6744 H   0  0  0  0  0  0  0  0  0  0  0  0
    6.5375    1.4706    0.0071 H   0  0  0  0  0  0  0  0  0  0  0  0
    7.0148   -0.8782   -1.6322 H   0  0  0  0  0  0  0  0  0  0  0  0
    8.8121    0.5422    1.1866 H   0  0  0  0  0  0  0  0  0  0  0  0
    9.9299    2.3518   -0.0885 H   0  0  0  0  0  0  0  0  0  0  0  0
   11.0811    1.5219    0.9858 H   0  0  0  0  0  0  0  0  0  0  0  0
   11.0791    1.1693   -0.7589 H   0  0  0  0  0  0  0  0  0  0  0  0
   10.8291   -1.2440   -0.2501 H   0  0  0  0  0  0  0  0  0  0  0  0
   11.6180   -0.2016    1.7509 H   0  0  0  0  0  0  0  0  0  0  0  0
    9.6674   -3.0941    0.8915 H   0  0  0  0  0  0  0  0  0  0  0  0
    8.9214   -3.5128    3.0227 H   0  0  0  0  0  0  0  0  0  0  0  0
    9.8241   -2.0082    3.3222 H   0  0  0  0  0  0  0  0  0  0  0  0
    8.1631   -2.1869    3.9365 H   0  0  0  0  0  0  0  0  0  0  0  0
    8.8869   -2.4620   -1.3593 H   0  0  0  0  0  0  0  0  0  0  0  0
    6.4423   -3.0838   -2.2134 H   0  0  0  0  0  0  0  0  0  0  0  0
    7.7055   -4.3207   -2.0073 H   0  0  0  0  0  0  0  0  0  0  0  0
    6.0842   -4.5815   -1.3207 H   0  0  0  0  0  0  0  0  0  0  0  0
  1  2  1  0  0  0  0
  1 65  1  0  0  0  0
  1 66  1  0  0  0  0
  1 67  1  0  0  0  0
  2  3  1  0  0  0  0
  2 68  1  0  0  0  0
  2 69  1  0  0  0  0
  3  4  1  0  0  0  0
  3 50  1  0  0  0  0
  3 70  1  0  0  0  0
  4  5  1  0  0  0  0
  5  6  2  0  0  0  0
  5  7  1  0  0  0  0
  7  8  1  0  0  0  0
  7 71  1  0  0  0  0
  7 72  1  0  0  0  0
  8  9  1  0  0  0  0
  8 10  1  0  0  0  0
  8 73  1  0  0  0  0
  9 74  1  0  0  0  0
 10 11  1  0  0  0  0
 10 12  1  0  0  0  0
 10 75  1  0  0  0  0
 11 76  1  0  0  0  0
 11 77  1  0  0  0  0
 11 78  1  0  0  0  0
 12 13  1  0  0  0  0
 12 36  1  0  0  0  0
 12 79  1  0  0  0  0
 13 14  1  0  0  0  0
 14 15  1  0  0  0  0
 14 31  1  0  0  0  0
 14 80  1  0  0  0  0
 15 16  1  0  0  0  0
 16 17  1  0  0  0  0
 16 18  1  0  0  0  0
 16 81  1  0  0  0  0
 17 82  1  0  0  0  0
 17 83  1  0  0  0  0
 17 84  1  0  0  0  0
 18 19  1  0  0  0  0
 18 30  1  0  0  0  0
 18 85  1  0  0  0  0
 19 20  1  0  0  0  0
 20 21  1  0  0  0  0
 20 29  1  0  0  0  0
 20 86  1  0  0  0  0
 21 22  1  0  0  0  0
 21 87  1  0  0  0  0
 21 88  1  0  0  0  0
 22 23  1  0  0  0  0
 22 24  1  0  0  0  0
 22 25  1  0  0  0  0
 23 89  1  0  0  0  0
 23 90  1  0  0  0  0
 23 91  1  0  0  0  0
 24 92  1  0  0  0  0
 25 26  1  0  0  0  0
 25 27  1  0  0  0  0
 25 93  1  0  0  0  0
 26 94  1  0  0  0  0
 27 28  1  0  0  0  0
 27 29  1  0  0  0  0
 27 95  1  0  0  0  0
 28 96  1  0  0  0  0
 28 97  1  0  0  0  0
 28 98  1  0  0  0  0
 30 31  1  0  0  0  0
 30 33  1  0  0  0  0
 30 99  1  0  0  0  0
 31 32  1  0  0  0  0
 31100  1  0  0  0  0
 32101  1  0  0  0  0
 33 34  1  0  0  0  0
 33 35  1  0  0  0  0
 34102  1  0  0  0  0
 34103  1  0  0  0  0
 34104  1  0  0  0  0
 35105  1  0  0  0  0
 35106  1  0  0  0  0
 35107  1  0  0  0  0
 36 37  1  0  0  0  0
 36 40  1  0  0  0  0
 36108  1  0  0  0  0
 37 38  1  0  0  0  0
 37109  1  0  0  0  0
 37110  1  0  0  0  0
 38 39  2  0  0  0  0
 38111  1  0  0  0  0
 40 41  1  0  0  0  0
 40112  1  0  0  0  0
 40113  1  0  0  0  0
 41 42  1  0  0  0  0
 41 43  1  0  0  0  0
 41114  1  0  0  0  0
 42115  1  0  0  0  0
 42116  1  0  0  0  0
 42117  1  0  0  0  0
 43 44  2  0  0  0  0
 43 45  1  0  0  0  0
 45 46  2  0  0  0  0
 45118  1  0  0  0  0
 46 47  1  0  0  0  0
 46119  1  0  0  0  0
 47 48  1  0  0  0  0
 47 49  2  0  0  0  0
 48120  1  0  0  0  0
 48121  1  0  0  0  0
 48122  1  0  0  0  0
 49 50  1  0  0  0  0
 49123  1  0  0  0  0
 50 51  1  0  0  0  0
 50124  1  0  0  0  0
 51 52  1  0  0  0  0
 51125  1  0  0  0  0
 51126  1  0  0  0  0
 52 53  1  0  0  0  0
 53 54  1  0  0  0  0
 53 62  1  0  0  0  0
 53127  1  0  0  0  0
 54 55  1  0  0  0  0
 55 56  1  0  0  0  0
 55 57  1  0  0  0  0
 55128  1  0  0  0  0
 56129  1  0  0  0  0
 56130  1  0  0  0  0
 56131  1  0  0  0  0
 57 58  1  0  0  0  0
 57 59  1  0  0  0  0
 57132  1  0  0  0  0
 58133  1  0  0  0  0
 59 60  1  0  0  0  0
 59 62  1  0  0  0  0
 59134  1  0  0  0  0
 60 61  1  0  0  0  0
 61135  1  0  0  0  0
 61136  1  0  0  0  0
 61137  1  0  0  0  0
 62 63  1  0  0  0  0
 62138  1  0  0  0  0
 63 64  1  0  0  0  0
 64139  1  0  0  0  0
 64140  1  0  0  0  0
 64141  1  0  0  0  0
M  END
>  <likely_enzyme_classes>
aldehyde dehydrogenase

>  <activity>
-12.7

>  <molID>
mol000188

>  <name>
tylosin

>  <reference>
Hu and Coats (2007)

>  <speciation_state_pH7.4>
neutral

>  <substance_type>
antibacterial drug

>  <smiles>
CC[C@H]1OC(=O)C[C@@H](O)C(C)[C@@H](O[C@@H]2O[C@H](C)[C@@H](O[C@H]3C[C@@](C)(O)[C@@H](O)[C@H](C)O3)[C@H](N(C)C)[C@H]2O)[C@@H](CC=O)C[C@@H](C)C(=O)/C=C\C(C)=C/C1COC1O[C@H](C)[C@@H](O)[C@@H](OC)[C@H]1OC

>  <inchi>
InChI=1S/C46H77NO17/c1-13-33-30(22-58-45-42(57-12)41(56-11)37(52)26(5)60-45)18-23(2)14-15-31(49)24(3)19-29(16-17-48)39(25(4)32(50)20-34(51)62-33)64-44-38(53)36(47(9)10)40(27(6)61-44)63-35-21-46(8,55)43(54)28(7)59-35/h14-15,17-18,24-30,32-33,35-45,50,52-55H,13,16,19-22H2,1-12H3/b15-14-,23-18-/t24-,25?,26-,27-,28+,29+,30?,32-,33-,35+,36-,37-,38-,39-,40-,41-,42-,43+,44+,45?,46-/m1/s1

>  <inchikey>
WBPYTXDJUQJLPQ-HLIPPNOOSA-N

$$$$

emcorina  05091710353D 1   1.00000     0.00000 
CORINA evaluation license 3.49 0066  11.04.2013
 28 29  0  0  0  0  0  0  0  0999 V2000
    4.6022    2.1609   -0.4871 C   0  0  0  0  0  0  0  0  0  0  0  0
    3.4228    1.2550   -0.2432 C   0  0  0  0  0  0  0  0  0  0  0  0
    3.0474    0.1969   -0.9967 C   0  0  0  0  0  0  0  0  0  0  0  0
    1.8917   -0.3010   -0.3368 C   0  0  0  0  0  0  0  0  0  0  0  0
    1.1193   -1.3939   -0.7158 N   0  0  0  0  0  0  0  0  0  0  0  0
   -0.2012   -1.8268    0.1850 S   0  0  0  0  0  0  0  0  0  0  0  0
   -0.7876   -2.9416   -0.4728 O   0  0  0  0  0  0  0  0  0  0  0  0
    0.2303   -1.8617    1.5384 O   0  0  0  0  0  0  0  0  0  0  0  0
   -1.3666   -0.5105    0.0681 C   0  0  0  0  0  0  0  0  0  0  0  0
   -2.3110   -0.5129   -0.9421 C   0  0  0  0  0  0  0  0  0  0  0  0
   -3.2259    0.5172   -1.0366 C   0  0  0  0  0  0  0  0  0  0  0  0
   -3.1968    1.5566   -0.1155 C   0  0  0  0  0  0  0  0  0  0  0  0
   -4.1209    2.5999   -0.2079 N   0  0  0  0  0  0  0  0  0  0  0  0
   -2.2468    1.5560    0.8979 C   0  0  0  0  0  0  0  0  0  0  0  0
   -1.3384    0.5198    0.9900 C   0  0  0  0  0  0  0  0  0  0  0  0
    1.7006    0.4745    0.6988 N   0  0  0  0  0  0  0  0  0  0  0  0
    2.5446    1.3376    0.7668 O   0  0  0  0  0  0  0  0  0  0  0  0
    4.2949    2.9958   -1.1169 H   0  0  0  0  0  0  0  0  0  0  0  0
    4.9716    2.5409    0.4654 H   0  0  0  0  0  0  0  0  0  0  0  0
    5.3931    1.6011   -0.9864 H   0  0  0  0  0  0  0  0  0  0  0  0
    3.5169   -0.1816   -1.8926 H   0  0  0  0  0  0  0  0  0  0  0  0
    1.3540   -1.9025   -1.5077 H   0  0  0  0  0  0  0  0  0  0  0  0
   -2.3329   -1.3212   -1.6581 H   0  0  0  0  0  0  0  0  0  0  0  0
   -3.9630    0.5149   -1.8260 H   0  0  0  0  0  0  0  0  0  0  0  0
   -4.7840    2.5991   -0.9159 H   0  0  0  0  0  0  0  0  0  0  0  0
   -4.0996    3.3251    0.4358 H   0  0  0  0  0  0  0  0  0  0  0  0
   -2.2214    2.3625    1.6157 H   0  0  0  0  0  0  0  0  0  0  0  0
   -0.5997    0.5184    1.7779 H   0  0  0  0  0  0  0  0  0  0  0  0
  1  2  1  0  0  0  0
  1 18  1  0  0  0  0
  1 19  1  0  0  0  0
  1 20  1  0  0  0  0
  2  3  2  0  0  0  0
  2 17  1  0  0  0  0
  3  4  1  0  0  0  0
  3 21  1  0  0  0  0
  4  5  1  0  0  0  0
  4 16  2  0  0  0  0
  5  6  1  0  0  0  0
  5 22  1  0  0  0  0
  6  7  2  0  0  0  0
  6  8  2  0  0  0  0
  6  9  1  0  0  0  0
  9 10  2  0  0  0  0
  9 15  1  0  0  0  0
 10 11  1  0  0  0  0
 10 23  1  0  0  0  0
 11 12  2  0  0  0  0
 11 24  1  0  0  0  0
 12 13  1  0  0  0  0
 12 14  1  0  0  0  0
 13 25  1  0  0  0  0
 13 26  1  0  0  0  0
 14 15  2  0  0  0  0
 14 27  1  0  0  0  0
 15 28  1  0  0  0  0
 16 17  1  0  0  0  0
M  END
>  <likely_enzyme_classes>
sulfanilamide hydrolase

>  <activity>
-11.9

>  <molID>
mol000189

>  <name>
sulfamethoxazole

>  <reference>
Lam et al. (2004); Cormier et al. (2015); Lai et al. (2011); Baena-Nogueras et al. (2017)

>  <speciation_state_pH7.4>
anionic

>  <substance_type>
antibacterial drug

>  <smiles>
Cc1cc(NS(=O)(=O)c2ccc(N)cc2)no1

>  <inchi>
InChI=1S/C10H11N3O3S/c1-7-6-10(12-16-7)13-17(14,15)9-4-2-8(11)3-5-9/h2-6H,11H2,1H3,(H,12,13)

>  <inchikey>
JLKIGFTWXXRPMT-UHFFFAOYSA-N

$$$$

emcorina  05091710353D 1   1.00000     0.00000 
CORINA evaluation license 3.49 0066  11.04.2013
 27 28  0  0  0  0  0  0  0  0999 V2000
    4.3212    2.0909    0.3178 N   0  0  0  0  0  0  0  0  0  0  0  0
    3.2660    1.1870    0.1753 C   0  0  0  0  0  0  0  0  0  0  0  0
    3.1762    0.0838    1.0147 C   0  0  0  0  0  0  0  0  0  0  0  0
    2.1312   -0.8077    0.8714 C   0  0  0  0  0  0  0  0  0  0  0  0
    1.1749   -0.6032   -0.1064 C   0  0  0  0  0  0  0  0  0  0  0  0
    1.2613    0.4940   -0.9436 C   0  0  0  0  0  0  0  0  0  0  0  0
    2.3008    1.3923   -0.8023 C   0  0  0  0  0  0  0  0  0  0  0  0
   -0.1563   -1.7434   -0.2861 S   0  0  0  0  0  0  0  0  0  0  0  0
   -0.6162   -1.6155   -1.6245 O   0  0  0  0  0  0  0  0  0  0  0  0
    0.2911   -2.9732    0.2678 O   0  0  0  0  0  0  0  0  0  0  0  0
   -1.3893   -1.2145    0.6846 N   0  0  0  0  0  0  0  0  0  0  0  0
   -2.0151   -0.0100    0.4140 C   0  0  0  0  0  0  0  0  0  0  0  0
   -3.1741    0.2617    0.9956 N   0  0  0  0  0  0  0  0  0  0  0  0
   -3.7983    1.4035    0.7586 C   0  0  0  0  0  0  0  0  0  0  0  0
   -3.2256    2.3197   -0.1096 C   0  0  0  0  0  0  0  0  0  0  0  0
   -2.0125    2.0035   -0.7008 C   0  0  0  0  0  0  0  0  0  0  0  0
   -1.4383    0.8462   -0.4165 N   0  0  0  0  0  0  0  0  0  0  0  0
    4.9924    1.9486    1.0035 H   0  0  0  0  0  0  0  0  0  0  0  0
    4.3851    2.8587   -0.2715 H   0  0  0  0  0  0  0  0  0  0  0  0
    3.9229   -0.0767    1.7783 H   0  0  0  0  0  0  0  0  0  0  0  0
    2.0610   -1.6658    1.5234 H   0  0  0  0  0  0  0  0  0  0  0  0
    0.5128    0.6508   -1.7062 H   0  0  0  0  0  0  0  0  0  0  0  0
    2.3674    2.2492   -1.4563 H   0  0  0  0  0  0  0  0  0  0  0  0
   -1.6729   -1.7487    1.4429 H   0  0  0  0  0  0  0  0  0  0  0  0
   -4.7431    1.6192    1.2354 H   0  0  0  0  0  0  0  0  0  0  0  0
   -3.7141    3.2594   -0.3210 H   0  0  0  0  0  0  0  0  0  0  0  0
   -1.5398    2.6953   -1.3822 H   0  0  0  0  0  0  0  0  0  0  0  0
  1  2  1  0  0  0  0
  1 18  1  0  0  0  0
  1 19  1  0  0  0  0
  2  3  2  0  0  0  0
  2  7  1  0  0  0  0
  3  4  1  0  0  0  0
  3 20  1  0  0  0  0
  4  5  2  0  0  0  0
  4 21  1  0  0  0  0
  5  6  1  0  0  0  0
  5  8  1  0  0  0  0
  6  7  2  0  0  0  0
  6 22  1  0  0  0  0
  7 23  1  0  0  0  0
  8  9  2  0  0  0  0
  8 10  2  0  0  0  0
  8 11  1  0  0  0  0
 11 12  1  0  0  0  0
 11 24  1  0  0  0  0
 12 13  2  0  0  0  0
 12 17  1  0  0  0  0
 13 14  1  0  0  0  0
 14 15  2  0  0  0  0
 14 25  1  0  0  0  0
 15 16  1  0  0  0  0
 15 26  1  0  0  0  0
 16 17  2  0  0  0  0
 16 27  1  0  0  0  0
M  END
>  <likely_enzyme_classes>
sulfanilamide hydrolase

>  <activity>
-11.9

>  <molID>
mol000190

>  <name>
sulfadiazine

>  <reference>
Lai et al. (2011)

>  <speciation_state_pH7.4>
anionic

>  <substance_type>
antibacterial drug

>  <smiles>
Nc1ccc(S(=O)(=O)Nc2ncccn2)cc1

>  <inchi>
InChI=1S/C10H10N4O2S/c11-8-2-4-9(5-3-8)17(15,16)14-10-12-6-1-7-13-10/h1-7H,11H2,(H,12,13,14)

>  <inchikey>
SEEPANYCNGTZFQ-UHFFFAOYSA-N

$$$$

emcorina  05091710353D 1   1.00000     0.00000 
CORINA evaluation license 3.49 0066  11.04.2013
 33 34  0  0  0  0  0  0  0  0999 V2000
    1.3583    2.6805    1.4671 C   0  0  0  0  0  0  0  0  0  0  0  0
    1.9031    1.5464    0.6376 C   0  0  0  0  0  0  0  0  0  0  0  0
    3.1755    1.6236    0.0935 C   0  0  0  0  0  0  0  0  0  0  0  0
    3.6385    0.5583   -0.6627 C   0  0  0  0  0  0  0  0  0  0  0  0
    5.0157    0.5981   -1.2734 C   0  0  0  0  0  0  0  0  0  0  0  0
    2.8572   -0.4939   -0.8416 N   0  0  0  0  0  0  0  0  0  0  0  0
    1.6454   -0.5362   -0.3075 C   0  0  0  0  0  0  0  0  0  0  0  0
    0.8543   -1.6528   -0.5148 N   0  0  0  0  0  0  0  0  0  0  0  0
   -0.4874   -1.9027    0.4232 S   0  0  0  0  0  0  0  0  0  0  0  0
   -1.0937   -3.0962   -0.0536 O   0  0  0  0  0  0  0  0  0  0  0  0
   -0.0734   -1.7261    1.7710 O   0  0  0  0  0  0  0  0  0  0  0  0
   -1.6179   -0.5969    0.0748 C   0  0  0  0  0  0  0  0  0  0  0  0
   -2.5497   -0.7425   -0.9365 C   0  0  0  0  0  0  0  0  0  0  0  0
   -3.4373    0.2790   -1.2122 C   0  0  0  0  0  0  0  0  0  0  0  0
   -3.3932    1.4538   -0.4723 C   0  0  0  0  0  0  0  0  0  0  0  0
   -4.2896    2.4888   -0.7482 N   0  0  0  0  0  0  0  0  0  0  0  0
   -2.4558    1.5969    0.5428 C   0  0  0  0  0  0  0  0  0  0  0  0
   -1.5750    0.5691    0.8170 C   0  0  0  0  0  0  0  0  0  0  0  0
    1.1748    0.4629    0.4246 N   0  0  0  0  0  0  0  0  0  0  0  0
    0.8384    3.3869    0.8199 H   0  0  0  0  0  0  0  0  0  0  0  0
    0.6627    2.2870    2.2083 H   0  0  0  0  0  0  0  0  0  0  0  0
    2.1797    3.1879    1.9730 H   0  0  0  0  0  0  0  0  0  0  0  0
    3.7927    2.4950    0.2550 H   0  0  0  0  0  0  0  0  0  0  0  0
    5.7360    0.1749   -0.5732 H   0  0  0  0  0  0  0  0  0  0  0  0
    5.0211    0.0172   -2.1957 H   0  0  0  0  0  0  0  0  0  0  0  0
    5.2861    1.6310   -1.4929 H   0  0  0  0  0  0  0  0  0  0  0  0
    1.0858   -2.2890   -1.2094 H   0  0  0  0  0  0  0  0  0  0  0  0
   -2.5832   -1.6561   -1.5116 H   0  0  0  0  0  0  0  0  0  0  0  0
   -4.1646    0.1647   -2.0024 H   0  0  0  0  0  0  0  0  0  0  0  0
   -4.9439    2.3877   -1.4571 H   0  0  0  0  0  0  0  0  0  0  0  0
   -4.2579    3.3087   -0.2309 H   0  0  0  0  0  0  0  0  0  0  0  0
   -2.4189    2.5090    1.1200 H   0  0  0  0  0  0  0  0  0  0  0  0
   -0.8462    0.6795    1.6064 H   0  0  0  0  0  0  0  0  0  0  0  0
  1  2  1  0  0  0  0
  1 20  1  0  0  0  0
  1 21  1  0  0  0  0
  1 22  1  0  0  0  0
  2  3  2  0  0  0  0
  2 19  1  0  0  0  0
  3  4  1  0  0  0  0
  3 23  1  0  0  0  0
  4  5  1  0  0  0  0
  4  6  2  0  0  0  0
  5 24  1  0  0  0  0
  5 25  1  0  0  0  0
  5 26  1  0  0  0  0
  6  7  1  0  0  0  0
  7  8  1  0  0  0  0
  7 19  2  0  0  0  0
  8  9  1  0  0  0  0
  8 27  1  0  0  0  0
  9 10  2  0  0  0  0
  9 11  2  0  0  0  0
  9 12  1  0  0  0  0
 12 13  2  0  0  0  0
 12 18  1  0  0  0  0
 13 14  1  0  0  0  0
 13 28  1  0  0  0  0
 14 15  2  0  0  0  0
 14 29  1  0  0  0  0
 15 16  1  0  0  0  0
 15 17  1  0  0  0  0
 16 30  1  0  0  0  0
 16 31  1  0  0  0  0
 17 18  2  0  0  0  0
 17 32  1  0  0  0  0
 18 33  1  0  0  0  0
M  END
>  <likely_enzyme_classes>
sulfanilamide hydrolase

>  <activity>
-11.8

>  <molID>
mol000192

>  <name>
sulfamethazine

>  <reference>
Lai et al. (2011); Baena-Nogueras et al. (2017)

>  <speciation_state_pH7.4>
anionic

>  <substance_type>
antibacterial drug

>  <smiles>
Cc1cc(C)nc(NS(=O)(=O)c2ccc(N)cc2)n1

>  <inchi>
InChI=1S/C12H14N4O2S/c1-8-7-9(2)15-12(14-8)16-19(17,18)11-5-3-10(13)4-6-11/h3-7H,13H2,1-2H3,(H,14,15,16)

>  <inchikey>
ASWVTGNCAZCNNR-UHFFFAOYSA-N

$$$$

emcorina  05091710353D 1   1.00000     0.00000 
CORINA evaluation license 3.49 0066  11.04.2013
 46 49  0  0  0  0  0  0  0  0999 V2000
   -1.4705    3.3279    1.2793 C   0  0  0  0  0  0  0  0  0  0  0  0
   -1.5607    2.7838   -0.1478 C   0  0  0  0  0  0  0  0  0  0  0  0
   -0.1959    2.9093   -0.8299 C   0  0  0  0  0  0  0  0  0  0  0  0
    0.7324    2.0478   -0.1601 O   0  0  0  0  0  0  0  0  0  0  0  0
    0.3706    0.7371   -0.0739 C   0  0  0  0  0  0  0  0  0  0  0  0
   -0.9787    0.3898   -0.0549 C   0  0  0  0  0  0  0  0  0  0  0  0
   -1.9560    1.3676   -0.1093 N   0  0  0  0  0  0  0  0  0  0  0  0
   -3.2647    1.0663   -0.1208 C   0  0  0  0  0  0  0  0  0  0  0  0
   -3.7303   -0.2292   -0.0569 C   0  0  0  0  0  0  0  0  0  0  0  0
   -5.1734   -0.5050   -0.0705 C   0  0  0  0  0  0  0  0  0  0  0  0
   -5.6172   -1.7764   -0.0075 O   0  0  0  0  0  0  0  0  0  0  0  0
   -5.9671    0.4132   -0.1387 O   0  0  0  0  0  0  0  0  0  0  0  0
   -2.7591   -1.3322    0.0248 C   0  0  0  0  0  0  0  0  0  0  0  0
   -3.1202   -2.4944    0.0931 O   0  0  0  0  0  0  0  0  0  0  0  0
   -1.3317   -0.9695    0.0205 C   0  0  0  0  0  0  0  0  0  0  0  0
   -0.3434   -1.9548    0.0911 C   0  0  0  0  0  0  0  0  0  0  0  0
    0.9853   -1.5946    0.0805 C   0  0  0  0  0  0  0  0  0  0  0  0
    1.9425   -2.5455    0.1508 F   0  0  0  0  0  0  0  0  0  0  0  0
    1.3450   -0.2485   -0.0033 C   0  0  0  0  0  0  0  0  0  0  0  0
    2.6946    0.1088   -0.0164 N   0  0  0  0  0  0  0  0  0  0  0  0
    3.3681   -0.4209   -1.2104 C   0  0  0  0  0  0  0  0  0  0  0  0
    4.8216    0.0581   -1.2277 C   0  0  0  0  0  0  0  0  0  0  0  0
    5.4973   -0.3913   -0.0024 N   0  0  0  0  0  0  0  0  0  0  0  0
    6.9173   -0.0153   -0.0163 C   0  0  0  0  0  0  0  0  0  0  0  0
    4.8238    0.1385    1.1915 C   0  0  0  0  0  0  0  0  0  0  0  0
    3.3703   -0.3405    1.2088 C   0  0  0  0  0  0  0  0  0  0  0  0
   -1.1742    4.3764    1.2503 H   0  0  0  0  0  0  0  0  0  0  0  0
   -2.4425    3.2383    1.7644 H   0  0  0  0  0  0  0  0  0  0  0  0
   -0.7306    2.7566    1.8399 H   0  0  0  0  0  0  0  0  0  0  0  0
   -2.3016    3.3538   -0.7085 H   0  0  0  0  0  0  0  0  0  0  0  0
   -0.2809    2.6130   -1.8754 H   0  0  0  0  0  0  0  0  0  0  0  0
    0.1511    3.9406   -0.7667 H   0  0  0  0  0  0  0  0  0  0  0  0
   -3.9814    1.8719   -0.1823 H   0  0  0  0  0  0  0  0  0  0  0  0
   -6.5751   -1.9081   -0.0195 H   0  0  0  0  0  0  0  0  0  0  0  0
   -0.6213   -2.9965    0.1543 H   0  0  0  0  0  0  0  0  0  0  0  0
    3.3444   -1.5104   -1.1879 H   0  0  0  0  0  0  0  0  0  0  0  0
    2.8570   -0.0641   -2.1046 H   0  0  0  0  0  0  0  0  0  0  0  0
    5.3310   -0.3573   -2.0971 H   0  0  0  0  0  0  0  0  0  0  0  0
    4.8452    1.1467   -1.2776 H   0  0  0  0  0  0  0  0  0  0  0  0
    7.0054    1.0688   -0.0865 H   0  0  0  0  0  0  0  0  0  0  0  0
    7.3933   -0.3599    0.9018 H   0  0  0  0  0  0  0  0  0  0  0  0
    7.4068   -0.4760   -0.8743 H   0  0  0  0  0  0  0  0  0  0  0  0
    5.3349   -0.2183    2.0857 H   0  0  0  0  0  0  0  0  0  0  0  0
    4.8475    1.2280    1.1690 H   0  0  0  0  0  0  0  0  0  0  0  0
    2.8609    0.0749    2.0782 H   0  0  0  0  0  0  0  0  0  0  0  0
    3.3467   -1.4291    1.2587 H   0  0  0  0  0  0  0  0  0  0  0  0
  1  2  1  0  0  0  0
  1 27  1  0  0  0  0
  1 28  1  0  0  0  0
  1 29  1  0  0  0  0
  2  3  1  0  0  0  0
  2  7  1  0  0  0  0
  2 30  1  0  0  0  0
  3  4  1  0  0  0  0
  3 31  1  0  0  0  0
  3 32  1  0  0  0  0
  4  5  1  0  0  0  0
  5  6  2  0  0  0  0
  5 19  1  0  0  0  0
  6  7  1  0  0  0  0
  6 15  1  0  0  0  0
  7  8  1  0  0  0  0
  8  9  2  0  0  0  0
  8 33  1  0  0  0  0
  9 10  1  0  0  0  0
  9 13  1  0  0  0  0
 10 11  1  0  0  0  0
 10 12  2  0  0  0  0
 11 34  1  0  0  0  0
 13 14  2  0  0  0  0
 13 15  1  0  0  0  0
 15 16  2  0  0  0  0
 16 17  1  0  0  0  0
 16 35  1  0  0  0  0
 17 18  1  0  0  0  0
 17 19  2  0  0  0  0
 19 20  1  0  0  0  0
 20 21  1  0  0  0  0
 20 26  1  0  0  0  0
 21 22  1  0  0  0  0
 21 36  1  0  0  0  0
 21 37  1  0  0  0  0
 22 23  1  0  0  0  0
 22 38  1  0  0  0  0
 22 39  1  0  0  0  0
 23 24  1  0  0  0  0
 23 25  1  0  0  0  0
 24 40  1  0  0  0  0
 24 41  1  0  0  0  0
 24 42  1  0  0  0  0
 25 26  1  0  0  0  0
 25 43  1  0  0  0  0
 25 44  1  0  0  0  0
 26 45  1  0  0  0  0
 26 46  1  0  0  0  0
M  END
>  <likely_enzyme_classes>
amine dehydrogenase; demethylase; monooxygenase; hydrolase

>  <activity>
-11.9

>  <molID>
mol000193

>  <name>
levofloxacin

>  <reference>
Lam et al. (2004)

>  <speciation_state_pH7.4>
anionic

>  <substance_type>
antibacterial drug

>  <smiles>
C[C@H]1COc2c(N3CCN(C)CC3)c(F)cc3c(=O)c(C(=O)O)cn1c32

>  <inchi>
InChI=1S/C18H20FN3O4/c1-10-9-26-17-14-11(16(23)12(18(24)25)8-22(10)14)7-13(19)15(17)21-5-3-20(2)4-6-21/h7-8,10H,3-6,9H2,1-2H3,(H,24,25)/t10-/m0/s1

>  <inchikey>
GSDSWSVVBLHKDQ-JTQLQIEISA-N

$$$$

emcorina  05091710353D 1   1.00000     0.00000 
CORINA evaluation license 3.49 0066  11.04.2013
 46 49  0  0  0  0  0  0  0  0999 V2000
   -1.4705    3.3279    1.2793 C   0  0  0  0  0  0  0  0  0  0  0  0
   -1.5607    2.7838   -0.1478 C   0  0  0  0  0  0  0  0  0  0  0  0
   -0.1959    2.9093   -0.8299 C   0  0  0  0  0  0  0  0  0  0  0  0
    0.7324    2.0478   -0.1601 O   0  0  0  0  0  0  0  0  0  0  0  0
    0.3706    0.7371   -0.0739 C   0  0  0  0  0  0  0  0  0  0  0  0
   -0.9787    0.3898   -0.0549 C   0  0  0  0  0  0  0  0  0  0  0  0
   -1.9560    1.3676   -0.1093 N   0  0  0  0  0  0  0  0  0  0  0  0
   -3.2647    1.0663   -0.1208 C   0  0  0  0  0  0  0  0  0  0  0  0
   -3.7303   -0.2292   -0.0569 C   0  0  0  0  0  0  0  0  0  0  0  0
   -5.1734   -0.5050   -0.0705 C   0  0  0  0  0  0  0  0  0  0  0  0
   -5.6172   -1.7764   -0.0075 O   0  0  0  0  0  0  0  0  0  0  0  0
   -5.9671    0.4132   -0.1387 O   0  0  0  0  0  0  0  0  0  0  0  0
   -2.7591   -1.3322    0.0248 C   0  0  0  0  0  0  0  0  0  0  0  0
   -3.1202   -2.4944    0.0931 O   0  0  0  0  0  0  0  0  0  0  0  0
   -1.3317   -0.9695    0.0205 C   0  0  0  0  0  0  0  0  0  0  0  0
   -0.3434   -1.9548    0.0911 C   0  0  0  0  0  0  0  0  0  0  0  0
    0.9853   -1.5946    0.0805 C   0  0  0  0  0  0  0  0  0  0  0  0
    1.9425   -2.5455    0.1508 F   0  0  0  0  0  0  0  0  0  0  0  0
    1.3450   -0.2485   -0.0033 C   0  0  0  0  0  0  0  0  0  0  0  0
    2.6946    0.1088   -0.0164 N   0  0  0  0  0  0  0  0  0  0  0  0
    3.3681   -0.4209   -1.2104 C   0  0  0  0  0  0  0  0  0  0  0  0
    4.8216    0.0581   -1.2277 C   0  0  0  0  0  0  0  0  0  0  0  0
    5.4973   -0.3913   -0.0024 N   0  0  0  0  0  0  0  0  0  0  0  0
    6.9173   -0.0153   -0.0163 C   0  0  0  0  0  0  0  0  0  0  0  0
    4.8238    0.1385    1.1915 C   0  0  0  0  0  0  0  0  0  0  0  0
    3.3703   -0.3405    1.2088 C   0  0  0  0  0  0  0  0  0  0  0  0
   -1.1742    4.3764    1.2503 H   0  0  0  0  0  0  0  0  0  0  0  0
   -2.4425    3.2383    1.7644 H   0  0  0  0  0  0  0  0  0  0  0  0
   -0.7306    2.7566    1.8399 H   0  0  0  0  0  0  0  0  0  0  0  0
   -2.3016    3.3538   -0.7085 H   0  0  0  0  0  0  0  0  0  0  0  0
   -0.2809    2.6130   -1.8754 H   0  0  0  0  0  0  0  0  0  0  0  0
    0.1511    3.9406   -0.7667 H   0  0  0  0  0  0  0  0  0  0  0  0
   -3.9814    1.8719   -0.1823 H   0  0  0  0  0  0  0  0  0  0  0  0
   -6.5751   -1.9081   -0.0195 H   0  0  0  0  0  0  0  0  0  0  0  0
   -0.6213   -2.9965    0.1543 H   0  0  0  0  0  0  0  0  0  0  0  0
    3.3444   -1.5104   -1.1879 H   0  0  0  0  0  0  0  0  0  0  0  0
    2.8570   -0.0641   -2.1046 H   0  0  0  0  0  0  0  0  0  0  0  0
    5.3310   -0.3573   -2.0971 H   0  0  0  0  0  0  0  0  0  0  0  0
    4.8452    1.1467   -1.2776 H   0  0  0  0  0  0  0  0  0  0  0  0
    7.0054    1.0688   -0.0865 H   0  0  0  0  0  0  0  0  0  0  0  0
    7.3933   -0.3599    0.9018 H   0  0  0  0  0  0  0  0  0  0  0  0
    7.4068   -0.4760   -0.8743 H   0  0  0  0  0  0  0  0  0  0  0  0
    5.3349   -0.2183    2.0857 H   0  0  0  0  0  0  0  0  0  0  0  0
    4.8475    1.2280    1.1690 H   0  0  0  0  0  0  0  0  0  0  0  0
    2.8609    0.0749    2.0782 H   0  0  0  0  0  0  0  0  0  0  0  0
    3.3467   -1.4291    1.2587 H   0  0  0  0  0  0  0  0  0  0  0  0
  1  2  1  0  0  0  0
  1 27  1  0  0  0  0
  1 28  1  0  0  0  0
  1 29  1  0  0  0  0
  2  3  1  0  0  0  0
  2  7  1  0  0  0  0
  2 30  1  0  0  0  0
  3  4  1  0  0  0  0
  3 31  1  0  0  0  0
  3 32  1  0  0  0  0
  4  5  1  0  0  0  0
  5  6  2  0  0  0  0
  5 19  1  0  0  0  0
  6  7  1  0  0  0  0
  6 15  1  0  0  0  0
  7  8  1  0  0  0  0
  8  9  2  0  0  0  0
  8 33  1  0  0  0  0
  9 10  1  0  0  0  0
  9 13  1  0  0  0  0
 10 11  1  0  0  0  0
 10 12  2  0  0  0  0
 11 34  1  0  0  0  0
 13 14  2  0  0  0  0
 13 15  1  0  0  0  0
 15 16  2  0  0  0  0
 16 17  1  0  0  0  0
 16 35  1  0  0  0  0
 17 18  1  0  0  0  0
 17 19  2  0  0  0  0
 19 20  1  0  0  0  0
 20 21  1  0  0  0  0
 20 26  1  0  0  0  0
 21 22  1  0  0  0  0
 21 36  1  0  0  0  0
 21 37  1  0  0  0  0
 22 23  1  0  0  0  0
 22 38  1  0  0  0  0
 22 39  1  0  0  0  0
 23 24  1  0  0  0  0
 23 25  1  0  0  0  0
 24 40  1  0  0  0  0
 24 41  1  0  0  0  0
 24 42  1  0  0  0  0
 25 26  1  0  0  0  0
 25 43  1  0  0  0  0
 25 44  1  0  0  0  0
 26 45  1  0  0  0  0
 26 46  1  0  0  0  0
M  END
>  <likely_enzyme_classes>
amine dehydrogenase; demethylase; monooxygenase; hydrolase

>  <activity>
-11.5

>  <molID>
mol000194

>  <name>
ofloxacin

>  <reference>
Boix et al. (2016)

>  <speciation_state_pH7.4>
anionic

>  <substance_type>
antibacterial drug

>  <smiles>
CC1COc2c(N3CCN(C)CC3)c(F)cc3c(=O)c(C(=O)O)cn1c32

>  <inchi>
InChI=1S/C18H20FN3O4/c1-10-9-26-17-14-11(16(23)12(18(24)25)8-22(10)14)7-13(19)15(17)21-5-3-20(2)4-6-21/h7-8,10H,3-6,9H2,1-2H3,(H,24,25)

>  <inchikey>
GSDSWSVVBLHKDQ-UHFFFAOYSA-N

$$$$

emcorina  05091710353D 1   1.00000     0.00000 
CORINA evaluation license 3.49 0066  11.04.2013
 31 33  0  0  0  0  0  0  0  0999 V2000
    0.9131    3.5818   -0.3228 C   0  0  0  0  0  0  0  0  0  0  0  0
   -0.1904    2.7216    0.2961 C   0  0  0  0  0  0  0  0  0  0  0  0
   -1.5092    2.9861   -0.4309 C   0  0  0  0  0  0  0  0  0  0  0  0
   -2.5955    2.1095    0.2001 C   0  0  0  0  0  0  0  0  0  0  0  0
   -2.1631    0.6668    0.1157 C   0  0  0  0  0  0  0  0  0  0  0  0
   -0.8114    0.3328    0.1014 C   0  0  0  0  0  0  0  0  0  0  0  0
    0.1696    1.3019    0.1728 N   0  0  0  0  0  0  0  0  0  0  0  0
    1.4798    0.9971    0.1382 C   0  0  0  0  0  0  0  0  0  0  0  0
    1.9461   -0.2950    0.0474 C   0  0  0  0  0  0  0  0  0  0  0  0
    0.9712   -1.3946   -0.0173 C   0  0  0  0  0  0  0  0  0  0  0  0
    1.3272   -2.5576   -0.0908 O   0  0  0  0  0  0  0  0  0  0  0  0
   -0.4570   -1.0262    0.0118 C   0  0  0  0  0  0  0  0  0  0  0  0
   -1.4398   -2.0144   -0.0492 C   0  0  0  0  0  0  0  0  0  0  0  0
   -2.7712   -1.6575   -0.0253 C   0  0  0  0  0  0  0  0  0  0  0  0
   -3.1262   -0.3177    0.0541 C   0  0  0  0  0  0  0  0  0  0  0  0
   -3.7284   -2.6092   -0.0827 F   0  0  0  0  0  0  0  0  0  0  0  0
    3.3895   -0.5704    0.0151 C   0  0  0  0  0  0  0  0  0  0  0  0
    4.1847    0.3475    0.0688 O   0  0  0  0  0  0  0  0  0  0  0  0
    3.8315   -1.8408   -0.0741 O   0  0  0  0  0  0  0  0  0  0  0  0
    0.5928    4.6234   -0.3444 H   0  0  0  0  0  0  0  0  0  0  0  0
    1.8208    3.4931    0.2741 H   0  0  0  0  0  0  0  0  0  0  0  0
    1.1120    3.2417   -1.3391 H   0  0  0  0  0  0  0  0  0  0  0  0
   -0.3003    2.9764    1.3502 H   0  0  0  0  0  0  0  0  0  0  0  0
   -1.7803    4.0367   -0.3273 H   0  0  0  0  0  0  0  0  0  0  0  0
   -1.4027    2.7345   -1.4861 H   0  0  0  0  0  0  0  0  0  0  0  0
   -2.7306    2.3901    1.2447 H   0  0  0  0  0  0  0  0  0  0  0  0
   -3.5325    2.2425   -0.3406 H   0  0  0  0  0  0  0  0  0  0  0  0
    2.1979    1.8025    0.1834 H   0  0  0  0  0  0  0  0  0  0  0  0
   -1.1586   -3.0551   -0.1153 H   0  0  0  0  0  0  0  0  0  0  0  0
   -4.1706   -0.0432    0.0711 H   0  0  0  0  0  0  0  0  0  0  0  0
    4.7894   -1.9721   -0.0920 H   0  0  0  0  0  0  0  0  0  0  0  0
  1  2  1  0  0  0  0
  1 20  1  0  0  0  0
  1 21  1  0  0  0  0
  1 22  1  0  0  0  0
  2  3  1  0  0  0  0
  2  7  1  0  0  0  0
  2 23  1  0  0  0  0
  3  4  1  0  0  0  0
  3 24  1  0  0  0  0
  3 25  1  0  0  0  0
  4  5  1  0  0  0  0
  4 26  1  0  0  0  0
  4 27  1  0  0  0  0
  5  6  2  0  0  0  0
  5 15  1  0  0  0  0
  6  7  1  0  0  0  0
  6 12  1  0  0  0  0
  7  8  1  0  0  0  0
  8  9  2  0  0  0  0
  8 28  1  0  0  0  0
  9 10  1  0  0  0  0
  9 17  1  0  0  0  0
 10 11  2  0  0  0  0
 10 12  1  0  0  0  0
 12 13  2  0  0  0  0
 13 14  1  0  0  0  0
 13 29  1  0  0  0  0
 14 15  2  0  0  0  0
 14 16  1  0  0  0  0
 15 30  1  0  0  0  0
 17 18  2  0  0  0  0
 17 19  1  0  0  0  0
 19 31  1  0  0  0  0
M  END
>  <likely_enzyme_classes>
amine dehydrogenase

>  <activity>
-11.2

>  <molID>
mol000195

>  <name>
Flumequine

>  <reference>
Baena-Nogueras et al. (2017)

>  <speciation_state_pH7.4>
anionic

>  <substance_type>
antibacterial drug

>  <smiles>
CC1CCc2cc(F)cc3c(=O)c(C(=O)O)cn1c23

>  <inchi>
InChI=1S/C14H12FNO3/c1-7-2-3-8-4-9(15)5-10-12(8)16(7)6-11(13(10)17)14(18)19/h4-7H,2-3H2,1H3,(H,18,19)

>  <inchikey>
DPSPPJIUMHPXMA-UHFFFAOYSA-N

$$$$

emcorina  05091710353D 1   1.00000     0.00000 
CORINA evaluation license 3.49 0066  11.04.2013
 41 43  0  0  0  0  0  0  0  0999 V2000
    1.0770    3.4834   -1.3097 C   0  0  0  0  0  0  0  0  0  0  0  0
    1.1375    2.9376    0.1183 C   0  0  0  0  0  0  0  0  0  0  0  0
    1.5702    1.5383    0.0884 N   0  0  0  0  0  0  0  0  0  0  0  0
    2.8808    1.2704    0.1596 C   0  0  0  0  0  0  0  0  0  0  0  0
    3.3693   -0.0198    0.1377 C   0  0  0  0  0  0  0  0  0  0  0  0
    2.4189   -1.1395    0.0329 C   0  0  0  0  0  0  0  0  0  0  0  0
    2.8012   -2.2967    0.0101 O   0  0  0  0  0  0  0  0  0  0  0  0
    0.9875   -0.8032   -0.0427 C   0  0  0  0  0  0  0  0  0  0  0  0
    0.0168   -1.8025   -0.1443 C   0  0  0  0  0  0  0  0  0  0  0  0
   -1.3043   -1.4614   -0.2131 C   0  0  0  0  0  0  0  0  0  0  0  0
   -1.6882   -0.1183   -0.1829 C   0  0  0  0  0  0  0  0  0  0  0  0
   -0.7365    0.8839   -0.0828 C   0  0  0  0  0  0  0  0  0  0  0  0
    0.6109    0.5521   -0.0063 C   0  0  0  0  0  0  0  0  0  0  0  0
   -3.0383    0.2160   -0.2543 N   0  0  0  0  0  0  0  0  0  0  0  0
   -3.4607    0.9597    0.9408 C   0  0  0  0  0  0  0  0  0  0  0  0
   -4.9255    1.3762    0.7880 C   0  0  0  0  0  0  0  0  0  0  0  0
   -5.7551    0.1785    0.5961 N   0  0  0  0  0  0  0  0  0  0  0  0
   -5.3328   -0.5652   -0.5989 C   0  0  0  0  0  0  0  0  0  0  0  0
   -3.8680   -0.9817   -0.4461 C   0  0  0  0  0  0  0  0  0  0  0  0
   -2.2439   -2.4272   -0.3114 F   0  0  0  0  0  0  0  0  0  0  0  0
    4.8147   -0.2723    0.2170 C   0  0  0  0  0  0  0  0  0  0  0  0
    5.5907    0.6595    0.3029 O   0  0  0  0  0  0  0  0  0  0  0  0
    5.2802   -1.5373    0.1946 O   0  0  0  0  0  0  0  0  0  0  0  0
    2.0649    3.4183   -1.7657 H   0  0  0  0  0  0  0  0  0  0  0  0
    0.3680    2.8962   -1.8934 H   0  0  0  0  0  0  0  0  0  0  0  0
    0.7550    4.5245   -1.2875 H   0  0  0  0  0  0  0  0  0  0  0  0
    1.8465    3.5248    0.7020 H   0  0  0  0  0  0  0  0  0  0  0  0
    0.1496    3.0027    0.5743 H   0  0  0  0  0  0  0  0  0  0  0  0
    3.5781    2.0915    0.2365 H   0  0  0  0  0  0  0  0  0  0  0  0
    0.3098   -2.8417   -0.1686 H   0  0  0  0  0  0  0  0  0  0  0  0
   -1.0412    1.9198   -0.0607 H   0  0  0  0  0  0  0  0  0  0  0  0
   -3.3528    0.3256    1.8207 H   0  0  0  0  0  0  0  0  0  0  0  0
   -2.8399    1.8485    1.0543 H   0  0  0  0  0  0  0  0  0  0  0  0
   -5.2493    1.9029    1.6857 H   0  0  0  0  0  0  0  0  0  0  0  0
   -5.0287    2.0324   -0.0762 H   0  0  0  0  0  0  0  0  0  0  0  0
   -5.7343   -0.4108    1.4149 H   0  0  0  0  0  0  0  0  0  0  0  0
   -5.9536   -1.4540   -0.7124 H   0  0  0  0  0  0  0  0  0  0  0  0
   -5.4407    0.0689   -1.4789 H   0  0  0  0  0  0  0  0  0  0  0  0
   -3.5441   -1.5084   -1.3438 H   0  0  0  0  0  0  0  0  0  0  0  0
   -3.7647   -1.6379    0.4181 H   0  0  0  0  0  0  0  0  0  0  0  0
    6.2387   -1.6534    0.2494 H   0  0  0  0  0  0  0  0  0  0  0  0
  1  2  1  0  0  0  0
  1 24  1  0  0  0  0
  1 25  1  0  0  0  0
  1 26  1  0  0  0  0
  2  3  1  0  0  0  0
  2 27  1  0  0  0  0
  2 28  1  0  0  0  0
  3  4  1  0  0  0  0
  3 13  1  0  0  0  0
  4  5  2  0  0  0  0
  4 29  1  0  0  0  0
  5  6  1  0  0  0  0
  5 21  1  0  0  0  0
  6  7  2  0  0  0  0
  6  8  1  0  0  0  0
  8  9  2  0  0  0  0
  8 13  1  0  0  0  0
  9 10  1  0  0  0  0
  9 30  1  0  0  0  0
 10 11  2  0  0  0  0
 10 20  1  0  0  0  0
 11 12  1  0  0  0  0
 11 14  1  0  0  0  0
 12 13  2  0  0  0  0
 12 31  1  0  0  0  0
 14 15  1  0  0  0  0
 14 19  1  0  0  0  0
 15 16  1  0  0  0  0
 15 32  1  0  0  0  0
 15 33  1  0  0  0  0
 16 17  1  0  0  0  0
 16 34  1  0  0  0  0
 16 35  1  0  0  0  0
 17 18  1  0  0  0  0
 17 36  1  0  0  0  0
 18 19  1  0  0  0  0
 18 37  1  0  0  0  0
 18 38  1  0  0  0  0
 19 39  1  0  0  0  0
 19 40  1  0  0  0  0
 21 22  2  0  0  0  0
 21 23  1  0  0  0  0
 23 41  1  0  0  0  0
M  END
>  <likely_enzyme_classes>
demethylase; amine dehydrogenase

>  <activity>
-10.7

>  <molID>
mol000196

>  <name>
Norfloxacin

>  <reference>
Baena-Nogueras et al. (2017)

>  <speciation_state_pH7.4>
zwitterionic

>  <substance_type>
antibacterial drug

>  <smiles>
CCn1cc(C(=O)O)c(=O)c2cc(F)c(N3CCNCC3)cc21

>  <inchi>
InChI=1S/C16H18FN3O3/c1-2-19-9-11(16(22)23)15(21)10-7-12(17)14(8-13(10)19)20-5-3-18-4-6-20/h7-9,18H,2-6H2,1H3,(H,22,23)

>  <inchikey>
OGJPXUAPXNRGGI-UHFFFAOYSA-N

$$$$

emcorina  05091710353D 1   1.00000     0.00000 
CORINA evaluation license 3.49 0066  11.04.2013
 42 45  0  0  0  0  0  0  0  0999 V2000
   -2.2564   -3.7225    0.3196 C   0  0  0  0  0  0  0  0  0  0  0  0
   -1.8280   -3.5762   -1.1419 C   0  0  0  0  0  0  0  0  0  0  0  0
   -1.1730   -2.7120   -0.0625 C   0  0  0  0  0  0  0  0  0  0  0  0
   -1.5293   -1.2915   -0.0248 N   0  0  0  0  0  0  0  0  0  0  0  0
   -2.8237   -0.9567    0.0573 C   0  0  0  0  0  0  0  0  0  0  0  0
   -3.2416    0.3577    0.0976 C   0  0  0  0  0  0  0  0  0  0  0  0
   -2.2316    1.4279    0.0492 C   0  0  0  0  0  0  0  0  0  0  0  0
   -2.5507    2.6039    0.0823 O   0  0  0  0  0  0  0  0  0  0  0  0
   -0.8202    1.0185   -0.0404 C   0  0  0  0  0  0  0  0  0  0  0  0
    0.2036    1.9675   -0.0915 C   0  0  0  0  0  0  0  0  0  0  0  0
    1.5046    1.5590   -0.1748 C   0  0  0  0  0  0  0  0  0  0  0  0
    1.8151    0.1971   -0.2096 C   0  0  0  0  0  0  0  0  0  0  0  0
    0.8101   -0.7556   -0.1601 C   0  0  0  0  0  0  0  0  0  0  0  0
   -0.5176   -0.3553   -0.0696 C   0  0  0  0  0  0  0  0  0  0  0  0
    3.1455   -0.2060   -0.2950 N   0  0  0  0  0  0  0  0  0  0  0  0
    3.5219   -1.0289    0.8629 C   0  0  0  0  0  0  0  0  0  0  0  0
    4.9626   -1.5162    0.6923 C   0  0  0  0  0  0  0  0  0  0  0  0
    5.8567   -0.3574    0.5605 N   0  0  0  0  0  0  0  0  0  0  0  0
    5.4803    0.4655   -0.5974 C   0  0  0  0  0  0  0  0  0  0  0  0
    4.0395    0.9528   -0.4269 C   0  0  0  0  0  0  0  0  0  0  0  0
    2.4954    2.4760   -0.2243 F   0  0  0  0  0  0  0  0  0  0  0  0
   -4.6716    0.6840    0.1869 C   0  0  0  0  0  0  0  0  0  0  0  0
   -5.4972   -0.2074    0.2259 O   0  0  0  0  0  0  0  0  0  0  0  0
   -5.0679    1.9720    0.2256 O   0  0  0  0  0  0  0  0  0  0  0  0
   -3.2343   -3.3304    0.5990 H   0  0  0  0  0  0  0  0  0  0  0  0
   -1.9417   -4.6220    0.8487 H   0  0  0  0  0  0  0  0  0  0  0  0
   -1.2313   -4.3794   -1.5743 H   0  0  0  0  0  0  0  0  0  0  0  0
   -2.5240   -3.0879   -1.8240 H   0  0  0  0  0  0  0  0  0  0  0  0
   -0.1453   -2.9465    0.2149 H   0  0  0  0  0  0  0  0  0  0  0  0
   -3.5648   -1.7416    0.0929 H   0  0  0  0  0  0  0  0  0  0  0  0
   -0.0327    3.0210   -0.0656 H   0  0  0  0  0  0  0  0  0  0  0  0
    1.0582   -1.8063   -0.1882 H   0  0  0  0  0  0  0  0  0  0  0  0
    3.4447   -0.4334    1.7727 H   0  0  0  0  0  0  0  0  0  0  0  0
    2.8534   -1.8871    0.9319 H   0  0  0  0  0  0  0  0  0  0  0  0
    5.2537   -2.1028    1.5637 H   0  0  0  0  0  0  0  0  0  0  0  0
    5.0339   -2.1342   -0.2027 H   0  0  0  0  0  0  0  0  0  0  0  0
    5.8642    0.1916    1.4071 H   0  0  0  0  0  0  0  0  0  0  0  0
    6.1487    1.3237   -0.6664 H   0  0  0  0  0  0  0  0  0  0  0  0
    5.5574   -0.1300   -1.5072 H   0  0  0  0  0  0  0  0  0  0  0  0
    3.7485    1.5394   -1.2983 H   0  0  0  0  0  0  0  0  0  0  0  0
    3.9682    1.5708    0.4682 H   0  0  0  0  0  0  0  0  0  0  0  0
   -6.0189    2.1371    0.2843 H   0  0  0  0  0  0  0  0  0  0  0  0
  1  2  1  0  0  0  0
  1  3  1  0  0  0  0
  1 25  1  0  0  0  0
  1 26  1  0  0  0  0
  2  3  1  0  0  0  0
  2 27  1  0  0  0  0
  2 28  1  0  0  0  0
  3  4  1  0  0  0  0
  3 29  1  0  0  0  0
  4  5  1  0  0  0  0
  4 14  1  0  0  0  0
  5  6  2  0  0  0  0
  5 30  1  0  0  0  0
  6  7  1  0  0  0  0
  6 22  1  0  0  0  0
  7  8  2  0  0  0  0
  7  9  1  0  0  0  0
  9 10  2  0  0  0  0
  9 14  1  0  0  0  0
 10 11  1  0  0  0  0
 10 31  1  0  0  0  0
 11 12  2  0  0  0  0
 11 21  1  0  0  0  0
 12 13  1  0  0  0  0
 12 15  1  0  0  0  0
 13 14  2  0  0  0  0
 13 32  1  0  0  0  0
 15 16  1  0  0  0  0
 15 20  1  0  0  0  0
 16 17  1  0  0  0  0
 16 33  1  0  0  0  0
 16 34  1  0  0  0  0
 17 18  1  0  0  0  0
 17 35  1  0  0  0  0
 17 36  1  0  0  0  0
 18 19  1  0  0  0  0
 18 37  1  0  0  0  0
 19 20  1  0  0  0  0
 19 38  1  0  0  0  0
 19 39  1  0  0  0  0
 20 40  1  0  0  0  0
 20 41  1  0  0  0  0
 22 23  2  0  0  0  0
 22 24  1  0  0  0  0
 24 42  1  0  0  0  0
M  END
>  <likely_enzyme_classes>
amine dehydrogenase

>  <activity>
-10.7

>  <molID>
mol000197

>  <name>
Ciprofloxacin

>  <reference>
Baena-Nogueras et al. (2017)

>  <speciation_state_pH7.4>
zwitterionic

>  <substance_type>
antibacterial drug

>  <smiles>
O=C(O)c1cn(C2CC2)c2cc(N3CCNCC3)c(F)cc2c1=O

>  <inchi>
InChI=1S/C17H18FN3O3/c18-13-7-11-14(8-15(13)20-5-3-19-4-6-20)21(10-1-2-10)9-12(16(11)22)17(23)24/h7-10,19H,1-6H2,(H,23,24)

>  <inchikey>
MYSWGUAQZAJSOK-UHFFFAOYSA-N

$$$$

emcorina  05091710353D 1   1.00000     0.00000 
CORINA evaluation license 3.49 0066  11.04.2013
 80 83  0  0  0  0  0  0  0  0999 V2000
    2.3647    3.6303   -0.7568 C   0  0  0  0  0  0  0  0  0  0  0  0
    1.8814    2.2831   -0.2849 C   0  0  0  0  0  0  0  0  0  0  0  0
    2.7848    1.2545   -0.0770 C   0  0  0  0  0  0  0  0  0  0  0  0
    2.3479    0.0056    0.3586 C   0  0  0  0  0  0  0  0  0  0  0  0
    1.0202   -0.2204    0.5870 C   0  0  0  0  0  0  0  0  0  0  0  0
    0.0978    0.8063    0.3826 C   0  0  0  0  0  0  0  0  0  0  0  0
    0.5301    2.0705   -0.0515 C   0  0  0  0  0  0  0  0  0  0  0  0
   -0.3694    3.0574   -0.2457 O   0  0  0  0  0  0  0  0  0  0  0  0
   -1.6816    2.8818   -0.0389 C   0  0  0  0  0  0  0  0  0  0  0  0
   -2.2044    1.6967    0.3823 C   0  0  0  0  0  0  0  0  0  0  0  0
   -1.3429    0.5997    0.6191 C   0  0  0  0  0  0  0  0  0  0  0  0
   -1.7760   -0.4775    0.9967 O   0  0  0  0  0  0  0  0  0  0  0  0
   -3.5914    1.5656    0.5849 N   0  0  0  0  0  0  0  0  0  0  0  0
   -4.2876    0.6366   -0.0997 C   0  0  0  0  0  0  0  0  0  0  0  0
   -3.7056   -0.1470   -0.8254 O   0  0  0  0  0  0  0  0  0  0  0  0
   -5.7562    0.5699    0.0314 C   0  0  0  0  0  0  0  0  0  0  0  0
   -6.4797   -0.3925   -0.6774 C   0  0  0  0  0  0  0  0  0  0  0  0
   -7.8500   -0.4513   -0.5525 C   0  0  0  0  0  0  0  0  0  0  0  0
   -8.5131    0.4449    0.2773 C   0  0  0  0  0  0  0  0  0  0  0  0
   -7.7969    1.4039    0.9842 C   0  0  0  0  0  0  0  0  0  0  0  0
   -6.4262    1.4656    0.8692 C   0  0  0  0  0  0  0  0  0  0  0  0
   -9.8636    0.3840    0.3974 O   0  0  0  0  0  0  0  0  0  0  0  0
   -8.6315   -1.4886   -1.3169 C   0  0  0  0  0  0  0  0  0  0  0  0
   -8.9657   -2.6397   -0.4035 C   0  0  0  0  0  0  0  0  0  0  0  0
  -10.2110   -3.0187   -0.2561 C   0  0  0  0  0  0  0  0  0  0  0  0
  -11.3093   -2.3035   -0.9999 C   0  0  0  0  0  0  0  0  0  0  0  0
  -10.5452   -4.1698    0.6573 C   0  0  0  0  0  0  0  0  0  0  0  0
   -2.5182    3.9203   -0.2560 O   0  0  0  0  0  0  0  0  0  0  0  0
    4.1075    1.4648   -0.3001 O   0  0  0  0  0  0  0  0  0  0  0  0
    4.9878    0.3635   -0.0672 C   0  0  0  0  0  0  0  0  0  0  0  0
    6.4087    0.7479   -0.4879 C   0  0  0  0  0  0  0  0  0  0  0  0
    7.3564   -0.4153   -0.1795 C   0  0  0  0  0  0  0  0  0  0  0  0
    7.2632   -0.7539    1.3115 C   0  0  0  0  0  0  0  0  0  0  0  0
    5.8093   -1.0803    1.6627 C   0  0  0  0  0  0  0  0  0  0  0  0
    4.9775    0.0309    1.3226 O   0  0  0  0  0  0  0  0  0  0  0  0
    5.3592   -2.3138    0.8774 C   0  0  0  0  0  0  0  0  0  0  0  0
    5.6974   -1.3611    3.1626 C   0  0  0  0  0  0  0  0  0  0  0  0
    8.0888   -1.8848    1.5969 O   0  0  0  0  0  0  0  0  0  0  0  0
    9.4304   -1.5490    1.9566 C   0  0  0  0  0  0  0  0  0  0  0  0
    6.9743   -1.5747   -0.9657 O   0  0  0  0  0  0  0  0  0  0  0  0
    7.5416   -1.7038   -2.1799 C   0  0  0  0  0  0  0  0  0  0  0  0
    8.3342   -0.8703   -2.5719 O   0  0  0  0  0  0  0  0  0  0  0  0
    7.2302   -2.7573   -2.9606 N   0  0  0  0  0  0  0  0  0  0  0  0
    6.4332    1.0251   -1.8896 O   0  0  0  0  0  0  0  0  0  0  0  0
    2.3643    3.6552   -1.8465 H   0  0  0  0  0  0  0  0  0  0  0  0
    1.7028    4.4078   -0.3753 H   0  0  0  0  0  0  0  0  0  0  0  0
    3.3766    3.8023   -0.3898 H   0  0  0  0  0  0  0  0  0  0  0  0
    3.0627   -0.7885    0.5162 H   0  0  0  0  0  0  0  0  0  0  0  0
    0.6857   -1.1903    0.9244 H   0  0  0  0  0  0  0  0  0  0  0  0
   -4.0460    2.1440    1.2172 H   0  0  0  0  0  0  0  0  0  0  0  0
   -5.9652   -1.0890   -1.3227 H   0  0  0  0  0  0  0  0  0  0  0  0
   -8.3158    2.0986    1.6280 H   0  0  0  0  0  0  0  0  0  0  0  0
   -5.8704    2.2110    1.4187 H   0  0  0  0  0  0  0  0  0  0  0  0
  -10.1694   -0.1962    1.1080 H   0  0  0  0  0  0  0  0  0  0  0  0
   -9.5528   -1.0446   -1.6939 H   0  0  0  0  0  0  0  0  0  0  0  0
   -8.0337   -1.8503   -2.1535 H   0  0  0  0  0  0  0  0  0  0  0  0
   -8.1786   -3.1522    0.1295 H   0  0  0  0  0  0  0  0  0  0  0  0
  -11.1345   -2.3851   -2.0727 H   0  0  0  0  0  0  0  0  0  0  0  0
  -12.2697   -2.7560   -0.7528 H   0  0  0  0  0  0  0  0  0  0  0  0
  -11.3182   -1.2522   -0.7121 H   0  0  0  0  0  0  0  0  0  0  0  0
  -10.7318   -3.7933    1.6630 H   0  0  0  0  0  0  0  0  0  0  0  0
  -11.4357   -4.6792    0.2890 H   0  0  0  0  0  0  0  0  0  0  0  0
   -9.7098   -4.8696    0.6805 H   0  0  0  0  0  0  0  0  0  0  0  0
   -2.0751    4.7270   -0.5526 H   0  0  0  0  0  0  0  0  0  0  0  0
    4.6563   -0.4963   -0.6494 H   0  0  0  0  0  0  0  0  0  0  0  0
    6.7256    1.6323    0.0648 H   0  0  0  0  0  0  0  0  0  0  0  0
    8.3787   -0.1276   -0.4249 H   0  0  0  0  0  0  0  0  0  0  0  0
    7.5974    0.1002    1.9005 H   0  0  0  0  0  0  0  0  0  0  0  0
    6.0894   -3.1128    1.0062 H   0  0  0  0  0  0  0  0  0  0  0  0
    4.3888   -2.6455    1.2467 H   0  0  0  0  0  0  0  0  0  0  0  0
    5.2788   -2.0620   -0.1800 H   0  0  0  0  0  0  0  0  0  0  0  0
    6.0177   -0.4819    3.7217 H   0  0  0  0  0  0  0  0  0  0  0  0
    4.6622   -1.5934    3.4125 H   0  0  0  0  0  0  0  0  0  0  0  0
    6.3327   -2.2080    3.4220 H   0  0  0  0  0  0  0  0  0  0  0  0
    9.9011   -1.0057    1.1372 H   0  0  0  0  0  0  0  0  0  0  0  0
    9.4216   -0.9237    2.8494 H   0  0  0  0  0  0  0  0  0  0  0  0
    9.9919   -2.4613    2.1576 H   0  0  0  0  0  0  0  0  0  0  0  0
    6.5975   -3.4226   -2.6477 H   0  0  0  0  0  0  0  0  0  0  0  0
    7.6388   -2.8503   -3.8354 H   0  0  0  0  0  0  0  0  0  0  0  0
    5.8510    1.7492   -2.1575 H   0  0  0  0  0  0  0  0  0  0  0  0
  1  2  1  0  0  0  0
  1 45  1  0  0  0  0
  1 46  1  0  0  0  0
  1 47  1  0  0  0  0
  2  3  2  0  0  0  0
  2  7  1  0  0  0  0
  3  4  1  0  0  0  0
  3 29  1  0  0  0  0
  4  5  2  0  0  0  0
  4 48  1  0  0  0  0
  5  6  1  0  0  0  0
  5 49  1  0  0  0  0
  6  7  2  0  0  0  0
  6 11  1  0  0  0  0
  7  8  1  0  0  0  0
  8  9  1  0  0  0  0
  9 10  2  0  0  0  0
  9 28  1  0  0  0  0
 10 11  1  0  0  0  0
 10 13  1  0  0  0  0
 11 12  2  0  0  0  0
 13 14  1  0  0  0  0
 13 50  1  0  0  0  0
 14 15  2  0  0  0  0
 14 16  1  0  0  0  0
 16 17  2  0  0  0  0
 16 21  1  0  0  0  0
 17 18  1  0  0  0  0
 17 51  1  0  0  0  0
 18 19  2  0  0  0  0
 18 23  1  0  0  0  0
 19 20  1  0  0  0  0
 19 22  1  0  0  0  0
 20 21  2  0  0  0  0
 20 52  1  0  0  0  0
 21 53  1  0  0  0  0
 22 54  1  0  0  0  0
 23 24  1  0  0  0  0
 23 55  1  0  0  0  0
 23 56  1  0  0  0  0
 24 25  2  0  0  0  0
 24 57  1  0  0  0  0
 25 26  1  0  0  0  0
 25 27  1  0  0  0  0
 26 58  1  0  0  0  0
 26 59  1  0  0  0  0
 26 60  1  0  0  0  0
 27 61  1  0  0  0  0
 27 62  1  0  0  0  0
 27 63  1  0  0  0  0
 28 64  1  0  0  0  0
 29 30  1  0  0  0  0
 30 31  1  0  0  0  0
 30 35  1  0  0  0  0
 30 65  1  0  0  0  0
 31 32  1  0  0  0  0
 31 44  1  0  0  0  0
 31 66  1  0  0  0  0
 32 33  1  0  0  0  0
 32 40  1  0  0  0  0
 32 67  1  0  0  0  0
 33 34  1  0  0  0  0
 33 38  1  0  0  0  0
 33 68  1  0  0  0  0
 34 35  1  0  0  0  0
 34 36  1  0  0  0  0
 34 37  1  0  0  0  0
 36 69  1  0  0  0  0
 36 70  1  0  0  0  0
 36 71  1  0  0  0  0
 37 72  1  0  0  0  0
 37 73  1  0  0  0  0
 37 74  1  0  0  0  0
 38 39  1  0  0  0  0
 39 75  1  0  0  0  0
 39 76  1  0  0  0  0
 39 77  1  0  0  0  0
 40 41  1  0  0  0  0
 41 42  2  0  0  0  0
 41 43  1  0  0  0  0
 43 78  1  0  0  0  0
 43 79  1  0  0  0  0
 44 80  1  0  0  0  0
M  END
>  <likely_enzyme_classes>
monooxygenase; amidohydrolase

>  <activity>
-11.2

>  <molID>
mol000198

>  <name>
Novobiocin

>  <reference>
Baena-Nogueras et al. (2017)

>  <speciation_state_pH7.4>
anionic

>  <substance_type>
antibacterial drug

>  <smiles>
COC1C(OC(=N)O)C(O)C(Oc2ccc3c(=O)c(NC(=O)c4ccc(O)c(CC=C(C)C)c4)c(O)oc3c2C)OC1(C)C

>  <inchi>
InChI=1S/C31H36N2O11/c1-14(2)7-8-16-13-17(9-11-19(16)34)27(37)33-21-22(35)18-10-12-20(15(3)24(18)42-28(21)38)41-29-23(36)25(43-30(32)39)26(40-6)31(4,5)44-29/h7,9-13,23,25-26,29,34,36,38H,8H2,1-6H3,(H2,32,39)(H,33,37)

>  <inchikey>
DYYIUCVAQGRACE-UHFFFAOYSA-N

$$$$

emcorina  05091710353D 1   1.00000     0.00000 
CORINA evaluation license 3.49 0066  11.04.2013
 39 40  0  0  0  0  0  0  0  0999 V2000
    2.1844    3.6008    0.3710 C   0  0  0  0  0  0  0  0  0  0  0  0
    2.8173    2.3891   -0.0451 O   0  0  0  0  0  0  0  0  0  0  0  0
    2.1686    1.2266    0.2331 C   0  0  0  0  0  0  0  0  0  0  0  0
    0.9490    1.2528    0.8926 C   0  0  0  0  0  0  0  0  0  0  0  0
    0.2887    0.0719    1.1754 C   0  0  0  0  0  0  0  0  0  0  0  0
    0.8405   -1.1394    0.8025 C   0  0  0  0  0  0  0  0  0  0  0  0
    2.0597   -1.1742    0.1428 C   0  0  0  0  0  0  0  0  0  0  0  0
    2.7243    0.0112   -0.1481 C   0  0  0  0  0  0  0  0  0  0  0  0
    3.9210   -0.0187   -0.7955 O   0  0  0  0  0  0  0  0  0  0  0  0
    3.8877    0.0309   -2.2233 C   0  0  0  0  0  0  0  0  0  0  0  0
    2.6020   -2.3664   -0.2233 O   0  0  0  0  0  0  0  0  0  0  0  0
    1.8612   -3.5439    0.1038 C   0  0  0  0  0  0  0  0  0  0  0  0
   -1.0363    0.1050    1.8927 C   0  0  0  0  0  0  0  0  0  0  0  0
   -2.1518    0.1938    0.8834 C   0  0  0  0  0  0  0  0  0  0  0  0
   -2.6903    1.4158    0.5318 C   0  0  0  0  0  0  0  0  0  0  0  0
   -3.6705    1.4603   -0.3589 N   0  0  0  0  0  0  0  0  0  0  0  0
   -4.1376    0.3516   -0.9132 C   0  0  0  0  0  0  0  0  0  0  0  0
   -3.6486   -0.8399   -0.6033 N   0  0  0  0  0  0  0  0  0  0  0  0
   -2.6607   -0.9575    0.2780 C   0  0  0  0  0  0  0  0  0  0  0  0
   -2.1510   -2.2047    0.5999 N   0  0  0  0  0  0  0  0  0  0  0  0
   -5.1625    0.4402   -1.8390 N   0  0  0  0  0  0  0  0  0  0  0  0
    2.8055    4.4508    0.0883 H   0  0  0  0  0  0  0  0  0  0  0  0
    1.2106    3.6862   -0.1111 H   0  0  0  0  0  0  0  0  0  0  0  0
    2.0543    3.5898    1.4531 H   0  0  0  0  0  0  0  0  0  0  0  0
    0.5147    2.1971    1.1859 H   0  0  0  0  0  0  0  0  0  0  0  0
    0.3216   -2.0599    1.0257 H   0  0  0  0  0  0  0  0  0  0  0  0
    3.3276   -0.8234   -2.6035 H   0  0  0  0  0  0  0  0  0  0  0  0
    3.4044    0.9539   -2.5436 H   0  0  0  0  0  0  0  0  0  0  0  0
    4.9056    0.0000   -2.6118 H   0  0  0  0  0  0  0  0  0  0  0  0
    2.4043   -4.4229   -0.2434 H   0  0  0  0  0  0  0  0  0  0  0  0
    1.7290   -3.6016    1.1842 H   0  0  0  0  0  0  0  0  0  0  0  0
    0.8853   -3.5052   -0.3801 H   0  0  0  0  0  0  0  0  0  0  0  0
   -1.1524   -0.8036    2.4835 H   0  0  0  0  0  0  0  0  0  0  0  0
   -1.0716    0.9732    2.5507 H   0  0  0  0  0  0  0  0  0  0  0  0
   -2.3168    2.3256    0.9782 H   0  0  0  0  0  0  0  0  0  0  0  0
   -2.5150   -3.0003    0.1812 H   0  0  0  0  0  0  0  0  0  0  0  0
   -1.4299   -2.2825    1.2441 H   0  0  0  0  0  0  0  0  0  0  0  0
   -5.5297    1.3065   -2.0746 H   0  0  0  0  0  0  0  0  0  0  0  0
   -5.5136   -0.3641   -2.2523 H   0  0  0  0  0  0  0  0  0  0  0  0
  1  2  1  0  0  0  0
  1 22  1  0  0  0  0
  1 23  1  0  0  0  0
  1 24  1  0  0  0  0
  2  3  1  0  0  0  0
  3  4  2  0  0  0  0
  3  8  1  0  0  0  0
  4  5  1  0  0  0  0
  4 25  1  0  0  0  0
  5  6  2  0  0  0  0
  5 13  1  0  0  0  0
  6  7  1  0  0  0  0
  6 26  1  0  0  0  0
  7  8  2  0  0  0  0
  7 11  1  0  0  0  0
  8  9  1  0  0  0  0
  9 10  1  0  0  0  0
 10 27  1  0  0  0  0
 10 28  1  0  0  0  0
 10 29  1  0  0  0  0
 11 12  1  0  0  0  0
 12 30  1  0  0  0  0
 12 31  1  0  0  0  0
 12 32  1  0  0  0  0
 13 14  1  0  0  0  0
 13 33  1  0  0  0  0
 13 34  1  0  0  0  0
 14 15  2  0  0  0  0
 14 19  1  0  0  0  0
 15 16  1  0  0  0  0
 15 35  1  0  0  0  0
 16 17  2  0  0  0  0
 17 18  1  0  0  0  0
 17 21  1  0  0  0  0
 18 19  2  0  0  0  0
 19 20  1  0  0  0  0
 20 36  1  0  0  0  0
 20 37  1  0  0  0  0
 21 38  1  0  0  0  0
 21 39  1  0  0  0  0
M  END
>  <likely_enzyme_classes>
monooxygenase

>  <activity>
-11.8

>  <molID>
mol000200

>  <name>
Trimethoprim

>  <reference>
Baena-Nogueras et al. (2017)

>  <speciation_state_pH7.4>
cationic

>  <substance_type>
antibacterial drug

>  <smiles>
COc1cc(Cc2c[nH]c(=N)[nH]c2=N)cc(OC)c1OC

>  <inchi>
InChI=1S/C14H18N4O3/c1-19-10-5-8(6-11(20-2)12(10)21-3)4-9-7-17-14(16)18-13(9)15/h5-7H,4H2,1-3H3,(H4,15,16,17,18)

>  <inchikey>
IEDVJHCEMCRBQM-UHFFFAOYSA-N

$$$$

emcorina  05091710353D 1   1.00000     0.00000 
CORINA evaluation license 3.49 0066  11.04.2013
 25 25  0  0  0  0  0  0  0  0999 V2000
   -4.9900    1.5097    0.2853 C   0  0  0  0  0  0  0  0  0  0  0  0
   -4.1181    0.3340    0.2236 N   0  0  0  0  0  0  0  0  0  0  0  0
   -2.7795    0.4848    0.2654 C   0  0  0  0  0  0  0  0  0  0  0  0
   -2.2954    1.5966    0.3544 O   0  0  0  0  0  0  0  0  0  0  0  0
   -1.9774   -0.5968    0.2087 N   0  0  0  0  0  0  0  0  0  0  0  0
   -0.5886   -0.4354    0.1397 C   0  0  0  0  0  0  0  0  0  0  0  0
    0.2503   -1.3636    0.7422 C   0  0  0  0  0  0  0  0  0  0  0  0
    1.6202   -1.2022    0.6722 C   0  0  0  0  0  0  0  0  0  0  0  0
    2.1568   -0.1169    0.0025 C   0  0  0  0  0  0  0  0  0  0  0  0
    1.3233    0.8096   -0.5984 C   0  0  0  0  0  0  0  0  0  0  0  0
   -0.0472    0.6500   -0.5363 C   0  0  0  0  0  0  0  0  0  0  0  0
    4.0329    0.1007   -0.0913 Br  0  0  0  0  0  0  0  0  0  0  0  0
   -4.6818   -0.9608    0.1200 O   0  0  0  0  0  0  0  0  0  0  0  0
   -4.8828   -1.4014   -1.2244 C   0  0  0  0  0  0  0  0  0  0  0  0
   -5.1823    1.8729   -0.7243 H   0  0  0  0  0  0  0  0  0  0  0  0
   -5.9331    1.2382    0.7596 H   0  0  0  0  0  0  0  0  0  0  0  0
   -4.5033    2.2929    0.8666 H   0  0  0  0  0  0  0  0  0  0  0  0
   -2.3624   -1.4871    0.2156 H   0  0  0  0  0  0  0  0  0  0  0  0
   -0.1681   -2.2107    1.2654 H   0  0  0  0  0  0  0  0  0  0  0  0
    2.2730   -1.9236    1.1409 H   0  0  0  0  0  0  0  0  0  0  0  0
    1.7448    1.6560   -1.1202 H   0  0  0  0  0  0  0  0  0  0  0  0
   -0.6974    1.3733   -1.0058 H   0  0  0  0  0  0  0  0  0  0  0  0
   -5.5583   -0.7148   -1.7346 H   0  0  0  0  0  0  0  0  0  0  0  0
   -3.9260   -1.4245   -1.7460 H   0  0  0  0  0  0  0  0  0  0  0  0
   -5.3174   -2.4010   -1.2180 H   0  0  0  0  0  0  0  0  0  0  0  0
  1  2  1  0  0  0  0
  1 15  1  0  0  0  0
  1 16  1  0  0  0  0
  1 17  1  0  0  0  0
  2  3  1  0  0  0  0
  2 13  1  0  0  0  0
  3  4  2  0  0  0  0
  3  5  1  0  0  0  0
  5  6  1  0  0  0  0
  5 18  1  0  0  0  0
  6  7  2  0  0  0  0
  6 11  1  0  0  0  0
  7  8  1  0  0  0  0
  7 19  1  0  0  0  0
  8  9  2  0  0  0  0
  8 20  1  0  0  0  0
  9 10  1  0  0  0  0
  9 12  1  0  0  0  0
 10 11  2  0  0  0  0
 10 21  1  0  0  0  0
 11 22  1  0  0  0  0
 13 14  1  0  0  0  0
 14 23  1  0  0  0  0
 14 24  1  0  0  0  0
 14 25  1  0  0  0  0
M  END
>  <likely_enzyme_classes>
aminedehydrogenase; amidohydrolase

>  <activity>
-11.8

>  <molID>
mol000201

>  <name>
metobromuron

>  <reference>
Parra et al. (2000)

>  <speciation_state_pH7.4>
neutral

>  <substance_type>
herbicide

>  <smiles>
CON(C)C(=O)Nc1ccc(Br)cc1

>  <inchi>
InChI=1S/C9H11BrN2O2/c1-12(14-2)9(13)11-8-5-3-7(10)4-6-8/h3-6H,1-2H3,(H,11,13)

>  <inchikey>
WLFDQEVORAMCIM-UHFFFAOYSA-N

$$$$
